Network_02R-173/scenario_72/case.raw
0,100.0,33,0,0,60.0
GRID OPTIMIZATION COMPETITION
INPUT DATA FILES ARE RAW ROP INL CON
1,'            ',138.0,1,1,1,1,1.0166436,-20.803737,1.1,0.9,1.1,0.9
2,'            ',138.0,1,1,1,1,0.9972603,-21.645013,1.1,0.9,1.1,0.9
3,'            ',138.0,1,1,1,1,1.0040677,-21.614181,1.1,0.9,1.1,0.9
4,'            ',138.0,1,1,1,1,1.0151643,-16.53275,1.1,0.9,1.1,0.9
5,'            ',138.0,1,1,1,1,1.0184847,-15.485496,1.1,0.9,1.1,0.9
6,'            ',138.0,1,1,1,1,1.0170976,-16.48773,1.1,0.9,1.1,0.9
7,'            ',138.0,1,1,1,1,1.0406665,-11.214879,1.1,0.9,1.1,0.9
8,'            ',138.0,1,1,1,1,1.0402791,-10.621562,1.1,0.9,1.1,0.9
9,'            ',138.0,1,1,1,1,1.023811,-22.604141,1.1,0.9,1.1,0.9
10,'            ',138.0,1,1,1,1,1.0293133,-21.124508,1.1,0.9,1.1,0.9
11,'            ',138.0,1,1,1,1,1.0218494,-24.345068,1.1,0.9,1.1,0.9
12,'            ',138.0,1,1,1,1,1.0311644,-20.606358,1.1,0.9,1.1,0.9
13,'            ',138.0,1,1,1,1,1.0175525,-17.831875,1.1,0.9,1.1,0.9
14,'            ',138.0,1,1,1,1,1.0185162,-18.500039,1.1,0.9,1.1,0.9
15,'            ',138.0,1,1,1,1,1.0236675,-15.286115,1.1,0.9,1.1,0.9
16,'            ',138.0,1,1,1,1,1.0314575,-12.581769,1.1,0.9,1.1,0.9
17,'            ',138.0,1,1,1,1,1.0062907,-20.089817,1.1,0.9,1.1,0.9
18,'            ',138.0,1,1,1,1,1.0274625,-7.2768943,1.1,0.9,1.1,0.9
19,'            ',138.0,1,1,1,1,1.0240296,-9.4838203,1.1,0.9,1.1,0.9
20,'            ',345.0,1,1,1,1,1.0352947,-26.257826,1.1,0.9,1.1,0.9
21,'            ',138.0,1,1,1,1,1.0387843,-28.972324,1.1,0.9,1.1,0.9
22,'            ',345.0,1,1,1,1,1.0360084,-26.15868,1.1,0.9,1.1,0.9
23,'            ',138.0,1,1,1,1,1.0347546,-29.426486,1.1,0.9,1.1,0.9
24,'            ',138.0,1,1,1,1,1.0137301,-16.961985,1.1,0.9,1.1,0.9
25,'            ',345.0,1,1,1,1,1.0212745,-11.441572,1.1,0.9,1.1,0.9
26,'            ',138.0,1,1,1,1,1.045117,-13.398914,1.1,0.9,1.1,0.9
27,'            ',345.0,1,1,1,1,1.0206221,-11.504635,1.1,0.9,1.1,0.9
28,'            ',138.0,1,1,1,1,1.0340421,-13.46787,1.1,0.9,1.1,0.9
29,'            ',138.0,1,1,1,1,1.0333704,-13.953386,1.1,0.9,1.1,0.9
30,'            ',138.0,1,1,1,1,1.0368211,-13.788197,1.1,0.9,1.1,0.9
31,'            ',138.0,1,1,1,1,1.0328362,-33.22115,1.1,0.9,1.1,0.9
32,'            ',138.0,1,1,1,1,0.99421597,-21.053087,1.1,0.9,1.1,0.9
33,'            ',138.0,1,1,1,1,0.99546039,-19.832805,1.1,0.9,1.1,0.9
34,'            ',138.0,1,1,1,1,1.0106084,-18.26698,1.1,0.9,1.1,0.9
35,'            ',138.0,1,1,1,1,1.0205372,-21.518984,1.1,0.9,1.1,0.9
36,'            ',138.0,1,1,1,1,0.99524989,-21.983332,1.1,0.9,1.1,0.9
37,'            ',138.0,1,1,1,1,1.0080633,-22.834267,1.1,0.9,1.1,0.9
38,'            ',138.0,1,1,1,1,1.0101624,-21.574307,1.1,0.9,1.1,0.9
39,'            ',138.0,1,1,1,1,1.0163682,-20.462079,1.1,0.9,1.1,0.9
40,'            ',138.0,1,1,1,1,1.0233167,-22.165262,1.1,0.9,1.1,0.9
41,'            ',345.0,1,1,1,1,0.98809669,-16.73139,1.1,0.9,1.1,0.9
42,'            ',138.0,1,1,1,1,1.047412,-20.197552,1.1,0.9,1.1,0.9
43,'            ',345.0,1,1,1,1,0.99273021,-16.463025,1.1,0.9,1.1,0.9
44,'            ',138.0,1,1,1,1,1.0323401,-21.566043,1.1,0.9,1.1,0.9
45,'            ',138.0,1,1,1,1,1.0052291,-22.169065,1.1,0.9,1.1,0.9
46,'            ',138.0,1,1,1,1,1.0172273,-21.811421,1.1,0.9,1.1,0.9
47,'            ',138.0,1,1,1,1,1.0122854,-23.182596,1.1,0.9,1.1,0.9
48,'            ',138.0,1,1,1,1,1.0223805,-20.838064,1.1,0.9,1.1,0.9
49,'            ',138.0,1,1,1,1,1.0100982,-22.947828,1.1,0.9,1.1,0.9
50,'            ',138.0,1,1,1,1,1.0154394,-21.73128,1.1,0.9,1.1,0.9
51,'            ',138.0,1,1,1,1,1.0247456,-20.429436,1.1,0.9,1.1,0.9
52,'            ',345.0,1,1,1,1,1.0110373,-15.800816,1.1,0.9,1.1,0.9
53,'            ',138.0,1,1,1,1,1.0051279,-20.100096,1.1,0.9,1.1,0.9
54,'            ',345.0,1,1,1,1,1.0135777,-15.344461,1.1,0.9,1.1,0.9
55,'            ',138.0,1,1,1,1,1.0211689,-17.969948,1.1,0.9,1.1,0.9
56,'            ',138.0,1,1,1,1,1.0062711,-19.560904,1.1,0.9,1.1,0.9
57,'            ',138.0,1,1,1,1,1.0318866,-17.344348,1.1,0.9,1.1,0.9
58,'            ',138.0,1,1,1,1,1.0155108,-27.810973,1.1,0.9,1.1,0.9
59,'            ',138.0,1,1,1,1,1.0355,-29.367628,1.1,0.9,1.1,0.9
60,'            ',138.0,1,1,1,1,1.0225039,-23.561865,1.1,0.9,1.1,0.9
61,'            ',138.0,1,1,1,1,1.0405742,-15.686937,1.1,0.9,1.1,0.9
62,'            ',138.0,1,1,1,1,1.0160184,-28.637129,1.1,0.9,1.1,0.9
63,'            ',138.0,1,1,1,1,1.0426698,-12.492845,1.1,0.9,1.1,0.9
64,'            ',138.0,1,1,1,1,1.0367154,-13.891941,1.1,0.9,1.1,0.9
65,'            ',138.0,1,1,1,1,1.0252151,-18.467665,1.1,0.9,1.1,0.9
66,'            ',138.0,1,1,1,1,1.04,-16.870044,1.1,0.9,1.1,0.9
67,'            ',138.0,1,1,1,1,1.0234896,-33.84373,1.1,0.9,1.1,0.9
68,'            ',138.0,1,1,1,1,1.0372692,-1.6654786,1.1,0.9,1.1,0.9
69,'            ',138.0,1,1,1,1,1.0223357,-18.33716,1.1,0.9,1.1,0.9
70,'            ',138.0,1,1,1,1,1.0403311,-18.155732,1.1,0.9,1.1,0.9
71,'            ',138.0,1,1,1,1,1.0168169,-17.656029,1.1,0.9,1.1,0.9
72,'            ',138.0,1,1,1,1,1.02189,-18.306618,1.1,0.9,1.1,0.9
73,'            ',138.0,1,1,1,1,1.0131229,-17.082854,1.1,0.9,1.1,0.9
74,'            ',138.0,1,1,1,1,1.0202018,-15.170778,1.1,0.9,1.1,0.9
75,'            ',138.0,1,1,1,1,1.0362734,-11.620698,1.1,0.9,1.1,0.9
76,'            ',138.0,1,1,1,1,1.0374262,-19.538596,1.1,0.9,1.1,0.9
77,'            ',138.0,1,1,1,1,1.0273933,-37.57569,1.1,0.9,1.1,0.9
78,'            ',138.0,1,1,1,1,1.0314579,-36.642002,1.1,0.9,1.1,0.9
79,'            ',138.0,1,1,1,1,1.0330425,-36.813165,1.1,0.9,1.1,0.9
80,'            ',138.0,1,1,1,1,1.0308255,-14.113711,1.1,0.9,1.1,0.9
81,'            ',138.0,1,1,1,1,1.0313001,-8.6004778,1.1,0.9,1.1,0.9
82,'            ',138.0,1,1,1,1,1.009244,-12.128336,1.1,0.9,1.1,0.9
83,'            ',138.0,1,1,1,1,1.0289412,-9.2490004,1.1,0.9,1.1,0.9
84,'            ',138.0,1,1,1,1,1.0261986,-10.618076,1.1,0.9,1.1,0.9
85,'            ',138.0,1,1,1,1,0.99847734,-22.79132,1.1,0.9,1.1,0.9
86,'            ',138.0,1,1,1,1,1.0284783,-20.119616,1.1,0.9,1.1,0.9
87,'            ',138.0,1,1,1,1,1.0297272,-18.887514,1.1,0.9,1.1,0.9
88,'            ',138.0,1,1,1,1,1.0290697,-22.044405,1.1,0.9,1.1,0.9
89,'            ',138.0,1,1,1,1,1.0244369,-19.861217,1.1,0.9,1.1,0.9
90,'            ',345.0,1,1,1,1,1.0404421,-15.90332,1.1,0.9,1.1,0.9
91,'            ',138.0,1,1,1,1,1.0345383,-18.207995,1.1,0.9,1.1,0.9
92,'            ',345.0,1,1,1,1,1.0399729,-15.963405,1.1,0.9,1.1,0.9
93,'            ',138.0,1,1,1,1,1.028464,-17.016842,1.1,0.9,1.1,0.9
94,'            ',138.0,1,1,1,1,1.0233731,-36.280184,1.1,0.9,1.1,0.9
95,'            ',138.0,1,1,1,1,1.0079368,-23.18477,1.1,0.9,1.1,0.9
96,'            ',138.0,1,1,1,1,1.0338129,-15.476345,1.1,0.9,1.1,0.9
97,'            ',345.0,1,1,1,1,1.0397429,-16.286793,1.1,0.9,1.1,0.9
98,'            ',138.0,1,1,1,1,1.0486738,-19.177059,1.1,0.9,1.1,0.9
99,'            ',345.0,1,1,1,1,1.0390958,-16.335746,1.1,0.9,1.1,0.9
100,'            ',138.0,1,1,1,1,1.0143686,-22.881892,1.1,0.9,1.1,0.9
101,'            ',138.0,1,1,1,1,1.0206193,-22.422598,1.1,0.9,1.1,0.9
102,'            ',138.0,1,1,1,1,1.0259868,-17.422987,1.1,0.9,1.1,0.9
103,'            ',138.0,1,1,1,1,1.0325354,-16.048092,1.1,0.9,1.1,0.9
104,'            ',138.0,1,1,1,1,1.0237985,-22.272315,1.1,0.9,1.1,0.9
105,'            ',138.0,1,1,1,1,1.0110246,-26.023929,1.1,0.9,1.1,0.9
106,'            ',345.0,1,1,1,1,1.0185805,-33.74919,1.1,0.9,1.1,0.9
107,'            ',138.0,1,1,1,1,1.0410637,-36.138295,1.1,0.9,1.1,0.9
108,'            ',345.0,1,1,1,1,1.0205244,-33.533464,1.1,0.9,1.1,0.9
109,'            ',138.0,1,1,1,1,1.04,-17.759255,1.1,0.9,1.1,0.9
110,'            ',138.0,1,1,1,1,1.0247159,-7.7827556,1.1,0.9,1.1,0.9
111,'            ',138.0,1,1,1,1,1.0097011,-9.7596652,1.1,0.9,1.1,0.9
112,'            ',138.0,1,1,1,1,1.0166071,-8.0402012,1.1,0.9,1.1,0.9
113,'            ',138.0,1,1,1,1,1.0265612,-6.995622,1.1,0.9,1.1,0.9
114,'            ',138.0,1,1,1,1,1.0157794,-8.6593601,1.1,0.9,1.1,0.9
115,'            ',138.0,1,1,1,1,1.0229886,-38.771343,1.1,0.9,1.1,0.9
116,'            ',138.0,1,1,1,1,1.0355,-41.135919,1.1,0.9,1.1,0.9
117,'            ',138.0,1,1,1,1,1.0365377,-13.495493,1.1,0.9,1.1,0.9
118,'            ',138.0,1,1,1,1,1.0260148,-18.480201,1.1,0.9,1.1,0.9
119,'            ',345.0,1,1,1,1,1.033291,-10.840244,1.1,0.9,1.1,0.9
120,'            ',138.0,1,1,1,1,1.0586533,-14.110123,1.1,0.9,1.1,0.9
121,'            ',345.0,1,1,1,1,1.034469,-10.728961,1.1,0.9,1.1,0.9
122,'            ',138.0,1,1,1,1,1.0372173,-15.768317,1.1,0.9,1.1,0.9
123,'            ',138.0,1,1,1,1,1.023156,-16.059341,1.1,0.9,1.1,0.9
124,'            ',138.0,1,1,1,1,1.0295791,-15.121631,1.1,0.9,1.1,0.9
125,'            ',138.0,1,1,1,1,1.0181728,-16.633108,1.1,0.9,1.1,0.9
126,'            ',138.0,1,1,1,1,1.0270525,-23.795084,1.1,0.9,1.1,0.9
127,'            ',138.0,1,1,1,1,1.0306595,-22.198855,1.1,0.9,1.1,0.9
128,'            ',138.0,1,1,1,1,1.010467,-20.503541,1.1,0.9,1.1,0.9
129,'            ',138.0,1,1,1,1,1.0113574,-21.025421,1.1,0.9,1.1,0.9
130,'            ',138.0,1,1,1,1,1.0250057,-29.468046,1.1,0.9,1.1,0.9
131,'            ',138.0,1,1,1,1,1.0283677,-40.626584,1.1,0.9,1.1,0.9
132,'            ',138.0,1,1,1,1,1.0345,-15.203026,1.1,0.9,1.1,0.9
133,'            ',138.0,1,1,1,1,1.0278242,-12.9342,1.1,0.9,1.1,0.9
134,'            ',138.0,1,1,1,1,1.0557085,-11.166353,1.1,0.9,1.1,0.9
135,'            ',345.0,1,1,1,1,1.04,-8.0963397,1.1,0.9,1.1,0.9
136,'            ',138.0,1,1,1,1,1.0705333,-9.9940485,1.1,0.9,1.1,0.9
137,'            ',345.0,1,1,1,1,1.039775,-8.1269337,1.1,0.9,1.1,0.9
138,'            ',138.0,1,1,1,1,1.0385,-19.227044,1.1,0.9,1.1,0.9
139,'            ',138.0,1,1,1,1,1.024254,-10.913063,1.1,0.9,1.1,0.9
140,'            ',138.0,1,1,1,1,1.0075188,-12.190981,1.1,0.9,1.1,0.9
141,'            ',138.0,1,1,1,1,1.0195082,-10.936884,1.1,0.9,1.1,0.9
142,'            ',138.0,1,1,1,1,1.012873,-13.359417,1.1,0.9,1.1,0.9
143,'            ',138.0,1,1,1,1,1.0229864,-19.682741,1.1,0.9,1.1,0.9
144,'            ',138.0,1,1,1,1,1.0167661,-17.56784,1.1,0.9,1.1,0.9
145,'            ',138.0,1,1,1,1,0.99539226,-21.946425,1.1,0.9,1.1,0.9
146,'            ',138.0,1,1,1,1,1.0141081,-13.60948,1.1,0.9,1.1,0.9
147,'            ',138.0,1,1,1,1,1.0115961,-15.343203,1.1,0.9,1.1,0.9
148,'            ',138.0,1,1,1,1,1.0141487,-12.97735,1.1,0.9,1.1,0.9
149,'            ',138.0,1,1,1,1,1.0081507,-13.741607,1.1,0.9,1.1,0.9
150,'            ',138.0,1,1,1,1,1.0309685,-11.846129,1.1,0.9,1.1,0.9
151,'            ',345.0,1,1,1,1,1.0303848,-8.0841611,1.1,0.9,1.1,0.9
152,'            ',138.0,1,1,1,1,1.0420426,-10.654895,1.1,0.9,1.1,0.9
153,'            ',345.0,1,1,1,1,1.0297005,-8.1659681,1.1,0.9,1.1,0.9
154,'            ',138.0,1,1,1,1,1.0253498,-11.958495,1.1,0.9,1.1,0.9
155,'            ',138.0,1,1,1,1,1.0258989,-12.27432,1.1,0.9,1.1,0.9
156,'            ',138.0,1,1,1,1,1.0355,-19.863817,1.1,0.9,1.1,0.9
157,'            ',138.0,1,1,1,1,1.0208,-17.529973,1.1,0.9,1.1,0.9
158,'            ',138.0,1,1,1,1,1.0280225,-17.52774,1.1,0.9,1.1,0.9
159,'            ',138.0,1,1,1,1,1.0359135,-3.6568873,1.1,0.9,1.1,0.9
160,'            ',138.0,1,1,1,1,1.0452767,-14.407059,1.1,0.9,1.1,0.9
161,'            ',138.0,1,1,1,1,1.002763,-22.207199,1.1,0.9,1.1,0.9
162,'            ',138.0,1,1,1,1,1.0229244,-14.993812,1.1,0.9,1.1,0.9
163,'            ',138.0,1,1,1,1,1.0159416,-19.43574,1.1,0.9,1.1,0.9
164,'            ',138.0,1,1,1,1,1.0178929,-22.669477,1.1,0.9,1.1,0.9
165,'            ',138.0,1,1,1,1,1.0185958,-11.195327,1.1,0.9,1.1,0.9
166,'            ',138.0,1,1,1,1,1.0182204,-11.240751,1.1,0.9,1.1,0.9
167,'            ',138.0,1,1,1,1,1.0282402,-14.244558,1.1,0.9,1.1,0.9
168,'            ',138.0,1,1,1,1,1.04,-18.183229,1.1,0.9,1.1,0.9
169,'            ',138.0,1,1,1,1,1.0118946,-29.495628,1.1,0.9,1.1,0.9
170,'            ',138.0,1,1,1,1,1.020964,-35.964092,1.1,0.9,1.1,0.9
171,'            ',138.0,1,1,1,1,1.026077,-35.730973,1.1,0.9,1.1,0.9
172,'            ',138.0,1,1,1,1,1.0040396,-39.823857,1.1,0.9,1.1,0.9
173,'            ',138.0,1,1,1,1,1.0094358,-40.596123,1.1,0.9,1.1,0.9
174,'            ',138.0,1,1,1,1,1.0206643,-36.016424,1.1,0.9,1.1,0.9
175,'            ',138.0,1,1,1,1,1.0291203,-35.748961,1.1,0.9,1.1,0.9
176,'            ',138.0,1,1,1,1,1.0415,-40.671106,1.1,0.9,1.1,0.9
177,'            ',138.0,1,1,1,1,1.0178681,-40.86258,1.1,0.9,1.1,0.9
178,'            ',138.0,1,1,1,1,1.009233,-39.361419,1.1,0.9,1.1,0.9
179,'            ',138.0,1,1,1,1,1.025581,-30.036552,1.1,0.9,1.1,0.9
180,'            ',138.0,1,1,1,1,1.0390711,-14.781817,1.1,0.9,1.1,0.9
181,'            ',138.0,1,1,1,1,1.04,-16.275906,1.1,0.9,1.1,0.9
182,'            ',138.0,1,1,1,1,1.03186,-9.2300836,1.1,0.9,1.1,0.9
183,'            ',138.0,1,1,1,1,1.0245058,-16.190382,1.1,0.9,1.1,0.9
184,'            ',138.0,1,1,1,1,1.0229461,-16.366261,1.1,0.9,1.1,0.9
185,'            ',138.0,1,1,1,1,1.0255892,-11.021544,1.1,0.9,1.1,0.9
186,'            ',138.0,1,1,1,1,1.0243622,-18.109637,1.1,0.9,1.1,0.9
187,'            ',138.0,1,1,1,1,1.0199732,-15.522096,1.1,0.9,1.1,0.9
188,'            ',138.0,1,1,1,1,1.033639,-15.915221,1.1,0.9,1.1,0.9
189,'            ',138.0,1,1,1,1,1.0232888,-16.974338,1.1,0.9,1.1,0.9
190,'            ',345.0,1,1,1,1,1.0206636,-14.500106,1.1,0.9,1.1,0.9
191,'            ',138.0,1,1,1,1,1.0428813,-15.706739,1.1,0.9,1.1,0.9
192,'            ',345.0,1,1,1,1,1.0200553,-14.570905,1.1,0.9,1.1,0.9
193,'            ',138.0,1,1,1,1,1.0205366,-17.122035,1.1,0.9,1.1,0.9
194,'            ',138.0,1,1,1,1,1.021967,-19.945534,1.1,0.9,1.1,0.9
195,'            ',138.0,1,1,1,1,1.0224483,-12.331495,1.1,0.9,1.1,0.9
196,'            ',138.0,1,1,1,1,1.0174085,-8.9767594,1.1,0.9,1.1,0.9
197,'            ',138.0,1,1,1,1,1.0302833,-16.563204,1.1,0.9,1.1,0.9
198,'            ',138.0,1,1,1,1,1.0094606,-12.980288,1.1,0.9,1.1,0.9
199,'            ',138.0,1,1,1,1,1.04,-20.147723,1.1,0.9,1.1,0.9
200,'            ',138.0,1,1,1,1,1.04,-20.600729,1.1,0.9,1.1,0.9
...
0 / END OF BUS DATA BEGIN LOAD DATA
1,'1',1,1,1,35.618824,6.5737227,0.0,0.0,0.0,0.0,1,1,0
2,'1',1,1,1,98.249974,27.511604,0.0,0.0,0.0,0.0,1,1,0
3,'1',1,1,1,48.647106,11.129965,0.0,0.0,0.0,0.0,1,1,0
4,'1',1,1,1,85.907798,3.746604,0.0,0.0,0.0,0.0,1,1,0
5,'1',1,1,1,84.780273,14.432042,0.0,0.0,0.0,0.0,1,1,0
6,'1',1,1,1,62.478442,5.521289,0.0,0.0,0.0,0.0,1,1,0
7,'1',1,1,1,49.784158,17.19519,0.0,0.0,0.0,0.0,1,1,0
8,'1',1,1,1,64.701608,7.0712876,0.0,0.0,0.0,0.0,1,1,0
9,'1',1,1,1,20.503948,8.8063929,0.0,0.0,0.0,0.0,1,1,0
10,'1',1,1,1,46.413917,14.1549,0.0,0.0,0.0,0.0,1,1,0
11,'1',1,1,1,16.100847,3.9200655,0.0,0.0,0.0,0.0,1,1,0
12,'1',1,1,1,43.588438,2.8695031,0.0,0.0,0.0,0.0,1,1,0
13,'1',1,1,1,61.22114,10.723958,0.0,0.0,0.0,0.0,1,1,0
14,'1',1,1,1,130.84189,52.410125,0.0,0.0,0.0,0.0,1,1,0
15,'1',1,1,1,104.28734,12.652581,0.0,0.0,0.0,0.0,1,1,0
16,'1',1,1,1,27.228169,9.9052567,0.0,0.0,0.0,0.0,1,1,0
17,'1',1,1,1,32.011464,13.061043,0.0,0.0,0.0,0.0,1,1,0
18,'1',1,1,1,119.67057,30.774143,0.0,0.0,0.0,0.0,1,1,0
19,'1',1,1,1,65.320532,13.431944,0.0,0.0,0.0,0.0,1,1,0
21,'1',1,1,1,58.218813,18.966129,0.0,0.0,0.0,0.0,1,1,0
23,'1',1,1,1,29.018699,6.2106536,0.0,0.0,0.0,0.0,1,1,0
24,'1',1,1,1,54.279955,33.954042,0.0,0.0,0.0,0.0,1,1,0
27,'1',1,1,1,102.98049,33.448899,0.0,0.0,0.0,0.0,1,1,0
28,'1',1,1,1,61.334173,20.664905,0.0,0.0,0.0,0.0,1,1,0
29,'1',1,1,1,50.934864,10.690247,0.0,0.0,0.0,0.0,1,1,0
30,'1',1,1,1,52.921548,2.7888621,0.0,0.0,0.0,0.0,1,1,0
31,'1',1,1,1,96.443918,21.502746,0.0,0.0,0.0,0.0,1,1,0
32,'1',1,1,1,78.803641,26.902654,0.0,0.0,0.0,0.0,1,1,0
33,'1',1,1,1,173.87396,98.108359,0.0,0.0,0.0,0.0,1,1,0
34,'1',1,1,1,62.111172,13.143542,0.0,0.0,0.0,0.0,1,1,0
35,'1',1,1,1,114.97555,12.155419,0.0,0.0,0.0,0.0,1,1,0
36,'1',1,1,1,135.53799,51.442293,0.0,0.0,0.0,0.0,1,1,0
37,'1',1,1,1,163.47215,36.679462,0.0,0.0,0.0,0.0,1,1,0
38,'1',1,1,1,94.238784,20.040841,0.0,0.0,0.0,0.0,1,1,0
39,'1',1,1,1,133.70834,50.68181,0.0,0.0,0.0,0.0,1,1,0
40,'1',1,1,1,153.11126,18.774944,0.0,0.0,0.0,0.0,1,1,0
42,'1',1,1,1,98.133807,30.734596,0.0,0.0,0.0,0.0,1,1,0
44,'1',1,1,1,77.880051,5.0373808,0.0,0.0,0.0,0.0,1,1,0
45,'1',1,1,1,302.57835,18.48031,0.0,0.0,0.0,0.0,1,1,0
46,'1',1,1,1,114.29507,24.00707,0.0,0.0,0.0,0.0,1,1,0
47,'1',1,1,1,88.231203,9.1999478,0.0,0.0,0.0,0.0,1,1,0
48,'1',1,1,1,72.71207,7.1365783,0.0,0.0,0.0,0.0,1,1,0
49,'1',1,1,1,127.71185,15.181496,0.0,0.0,0.0,0.0,1,1,0
50,'1',1,1,1,86.944338,53.880018,0.0,0.0,0.0,0.0,1,1,0
51,'1',1,1,1,88.686916,19.421573,0.0,0.0,0.0,0.0,1,1,0
53,'1',1,1,1,171.6378,44.16329,0.0,0.0,0.0,0.0,1,1,0
55,'1',1,1,1,36.123908,3.9151884,0.0,0.0,0.0,0.0,1,1,0
56,'1',1,1,1,38.577879,3.9945162,0.0,0.0,0.0,0.0,1,1,0
57,'1',1,1,1,19.683228,6.0811296,0.0,0.0,0.0,0.0,1,1,0
58,'1',1,1,1,43.832014,35.835862,0.0,0.0,0.0,0.0,1,1,0
59,'1',1,1,1,42.90744,17.471748,0.0,0.0,0.0,0.0,1,1,0
60,'1',1,1,1,22.945448,9.1966579,0.0,0.0,0.0,0.0,1,1,0
61,'1',1,1,1,44.969939,9.759103,0.0,0.0,0.0,0.0,1,1,0
62,'1',1,1,1,36.437586,4.474327,0.0,0.0,0.0,0.0,1,1,0
63,'1',1,1,1,71.680313,17.142062,0.0,0.0,0.0,0.0,1,1,0
64,'1',1,1,1,31.844114,8.0677761,0.0,0.0,0.0,0.0,1,1,0
65,'1',1,1,1,63.899352,9.1908374,0.0,0.0,0.0,0.0,1,1,0
66,'1',1,1,1,36.679289,10.617765,0.0,0.0,0.0,0.0,1,1,0
67,'1',1,1,1,28.707733,7.2100171,0.0,0.0,0.0,0.0,1,1,0
68,'1',1,1,1,28.62912,5.4703638,0.0,0.0,0.0,0.0,1,1,0
69,'1',1,1,1,32.067628,8.0925529,0.0,0.0,0.0,0.0,1,1,0
70,'1',1,1,1,39.196158,3.9775994,0.0,0.0,0.0,0.0,1,1,0
71,'1',1,1,1,60.374539,8.4751114,0.0,0.0,0.0,0.0,1,1,0
72,'1',1,1,1,56.946907,9.9333583,0.0,0.0,0.0,0.0,1,1,0
73,'1',1,1,1,70.414725,10.349797,0.0,0.0,0.0,0.0,1,1,0
74,'1',1,1,1,60.758304,25.733148,0.0,0.0,0.0,0.0,1,1,0
75,'1',1,1,1,40.775379,8.4048883,0.0,0.0,0.0,0.0,1,1,0
76,'1',1,1,1,43.071256,4.3092484,0.0,0.0,0.0,0.0,1,1,0
77,'1',1,1,1,57.295706,18.331089,0.0,0.0,0.0,0.0,1,1,0
78,'1',1,1,1,54.007001,18.028247,0.0,0.0,0.0,0.0,1,1,0
79,'1',1,1,1,54.265083,10.902562,0.0,0.0,0.0,0.0,1,1,0
80,'1',1,1,1,46.069768,21.190099,0.0,0.0,0.0,0.0,1,1,0
81,'1',1,1,1,54.507951,17.693866,0.0,0.0,0.0,0.0,1,1,0
82,'1',1,1,1,111.64362,24.13123,0.0,0.0,0.0,0.0,1,1,0
83,'1',1,1,1,101.04494,24.905649,0.0,0.0,0.0,0.0,1,1,0
84,'1',1,1,1,56.110567,11.571753,0.0,0.0,0.0,0.0,1,1,0
85,'1',1,1,1,32.550342,12.181852,0.0,0.0,0.0,0.0,1,1,0
86,'1',1,1,1,59.545233,10.884686,0.0,0.0,0.0,0.0,1,1,0
87,'1',1,1,1,65.981712,22.630096,0.0,0.0,0.0,0.0,1,1,0
88,'1',1,1,1,47.343404,10.039575,0.0,0.0,0.0,0.0,1,1,0
89,'1',1,1,1,74.818328,17.494879,0.0,0.0,0.0,0.0,1,1,0
92,'1',1,1,1,106.47708,17.937195,0.0,0.0,0.0,0.0,1,1,0
93,'1',1,1,1,40.21293,5.3027836,0.0,0.0,0.0,0.0,1,1,0
94,'1',1,1,1,46.5641,6.1192811,0.0,0.0,0.0,0.0,1,1,0
95,'1',1,1,1,46.010271,23.126542,0.0,0.0,0.0,0.0,1,1,0
96,'1',1,1,1,33.93057,6.3354304,0.0,0.0,0.0,0.0,1,1,0
99,'1',1,1,1,97.74846,38.282719,0.0,0.0,0.0,0.0,1,1,0
100,'1',1,1,1,38.554521,12.141577,0.0,0.0,0.0,0.0,1,1,0
101,'1',1,1,1,45.161533,22.880496,0.0,0.0,0.0,0.0,1,1,0
102,'1',1,1,1,29.186281,7.8144916,0.0,0.0,0.0,0.0,1,1,0
103,'1',1,1,1,34.30703,9.7968422,0.0,0.0,0.0,0.0,1,1,0
104,'1',1,1,1,24.265991,5.5635958,0.0,0.0,0.0,0.0,1,1,0
105,'1',1,1,1,39.916997,11.441166,0.0,0.0,0.0,0.0,1,1,0
107,'1',1,1,1,75.513667,1.3391346,0.0,0.0,0.0,0.0,1,1,0
109,'1',1,1,1,49.64731,13.461957,0.0,0.0,0.0,0.0,1,1,0
110,'1',1,1,1,54.65649,8.3286733,0.0,0.0,0.0,0.0,1,1,0
111,'1',1,1,1,93.172043,20.327059,0.0,0.0,0.0,0.0,1,1,0
112,'1',1,1,1,99.668833,59.004116,0.0,0.0,0.0,0.0,1,1,0
113,'1',1,1,1,52.670777,21.324699,0.0,0.0,0.0,0.0,1,1,0
114,'1',1,1,1,40.69928,12.372287,0.0,0.0,0.0,0.0,1,1,0
115,'1',1,1,1,77.71488,14.88003,0.0,0.0,0.0,0.0,1,1,0
116,'1',1,1,1,88.038082,18.358639,0.0,0.0,0.0,0.0,1,1,0
117,'1',1,1,1,68.182582,7.6680951,0.0,0.0,0.0,0.0,1,1,0
118,'1',1,1,1,92.360117,11.407371,0.0,0.0,0.0,0.0,1,1,0
120,'1',1,1,1,85.816859,23.336996,0.0,0.0,0.0,0.0,1,1,0
122,'1',1,1,1,54.397196,9.0923423,0.0,0.0,0.0,0.0,1,1,0
123,'1',1,1,1,71.147368,33.993187,0.0,0.0,0.0,0.0,1,1,0
124,'1',1,1,1,83.926724,7.3449827,0.0,0.0,0.0,0.0,1,1,0
125,'1',1,1,1,83.155053,31.193835,0.0,0.0,0.0,0.0,1,1,0
126,'1',1,1,1,36.25305,3.666049,0.0,0.0,0.0,0.0,1,1,0
127,'1',1,1,1,29.818337,16.407276,0.0,0.0,0.0,0.0,1,1,0
128,'1',1,1,1,35.782628,2.4228445,0.0,0.0,0.0,0.0,1,1,0
129,'1',1,1,1,51.809298,15.49727,0.0,0.0,0.0,0.0,1,1,0
130,'1',1,1,1,31.251404,13.832106,0.0,0.0,0.0,0.0,1,1,0
131,'1',1,1,1,34.958927,7.636337,0.0,0.0,0.0,0.0,1,1,0
132,'1',1,1,1,52.063316,19.148102,0.0,0.0,0.0,0.0,1,1,0
133,'1',1,1,1,19.636888,8.9944631,0.0,0.0,0.0,0.0,1,1,0
134,'1',1,1,1,38.948873,4.3593831,0.0,0.0,0.0,0.0,1,1,0
137,'1',1,1,1,51.54586,9.903541,0.0,0.0,0.0,0.0,1,1,0
138,'1',1,1,1,58.676665,17.430486,0.0,0.0,0.0,0.0,1,1,0
139,'1',1,1,1,71.483796,14.183202,0.0,0.0,0.0,0.0,1,1,0
140,'1',1,1,1,72.496609,22.65969,0.0,0.0,0.0,0.0,1,1,0
141,'1',1,1,1,81.951796,40.60647,0.0,0.0,0.0,0.0,1,1,0
142,'1',1,1,1,22.847942,4.5029059,0.0,0.0,0.0,0.0,1,1,0
143,'1',1,1,1,42.563165,21.293882,0.0,0.0,0.0,0.0,1,1,0
144,'1',1,1,1,35.494926,8.3704275,0.0,0.0,0.0,0.0,1,1,0
145,'1',1,1,1,78.917738,30.005083,0.0,0.0,0.0,0.0,1,1,0
146,'1',1,1,1,44.649313,13.401109,0.0,0.0,0.0,0.0,1,1,0
147,'1',1,1,1,65.73686,21.35948,0.0,0.0,0.0,0.0,1,1,0
148,'1',1,1,1,87.010729,41.888415,0.0,0.0,0.0,0.0,1,1,0
149,'1',1,1,1,109.81274,17.012804,0.0,0.0,0.0,0.0,1,1,0
150,'1',1,1,1,169.63527,52.74781,0.0,0.0,0.0,0.0,1,1,0
153,'1',1,1,1,157.10017,35.911907,0.0,0.0,0.0,0.0,1,1,0
154,'1',1,1,1,53.456581,10.636111,0.0,0.0,0.0,0.0,1,1,0
155,'1',1,1,1,90.361803,14.921995,0.0,0.0,0.0,0.0,1,1,0
156,'1',1,1,1,73.742886,28.154261,0.0,0.0,0.0,0.0,1,1,0
157,'1',1,1,1,37.965472,26.039832,0.0,0.0,0.0,0.0,1,1,0
158,'1',1,1,1,99.232414,16.632599,0.0,0.0,0.0,0.0,1,1,0
159,'1',1,1,1,73.406892,14.440844,0.0,0.0,0.0,0.0,1,1,0
160,'1',1,1,1,36.396681,14.792214,0.0,0.0,0.0,0.0,1,1,0
161,'1',1,1,1,28.658666,5.7080747,0.0,0.0,0.0,0.0,1,1,0
162,'1',1,1,1,26.355874,8.7299695,0.0,0.0,0.0,0.0,1,1,0
163,'1',1,1,1,36.962971,3.8905286,0.0,0.0,0.0,0.0,1,1,0
164,'1',1,1,1,39.57328,5.63349,0.0,0.0,0.0,0.0,1,1,0
165,'1',1,1,1,124.00109,13.81438,0.0,0.0,0.0,0.0,1,1,0
166,'1',1,1,1,74.25287,16.429664,0.0,0.0,0.0,0.0,1,1,0
167,'1',1,1,1,40.830164,10.040794,0.0,0.0,0.0,0.0,1,1,0
168,'1',1,1,1,72.906616,23.714286,0.0,0.0,0.0,0.0,1,1,0
169,'1',1,1,1,40.186614,21.45574,0.0,0.0,0.0,0.0,1,1,0
170,'1',1,1,1,99.319971,23.82538,0.0,0.0,0.0,0.0,1,1,0
171,'1',1,1,1,115.38626,31.220929,0.0,0.0,0.0,0.0,1,1,0
172,'1',1,1,1,63.642405,19.895522,0.0,0.0,0.0,0.0,1,1,0
173,'1',1,1,1,33.992307,4.577169,0.0,0.0,0.0,0.0,1,1,0
174,'1',1,1,1,136.21012,69.077179,0.0,0.0,0.0,0.0,1,1,0
175,'1',1,1,1,98.379266,4.0944475,0.0,0.0,0.0,0.0,1,1,0
176,'1',1,1,1,68.807669,42.520355,0.0,0.0,0.0,0.0,1,1,0
177,'1',1,1,1,165.22394,27.018245,0.0,0.0,0.0,0.0,1,1,0
178,'1',1,1,1,190.80659,44.515712,0.0,0.0,0.0,0.0,1,1,0
179,'1',1,1,1,75.32883,20.81102,0.0,0.0,0.0,0.0,1,1,0
180,'1',1,1,1,42.215803,6.3904744,0.0,0.0,0.0,0.0,1,1,0
181,'1',1,1,1,50.836476,8.987556,0.0,0.0,0.0,0.0,1,1,0
182,'1',1,1,1,112.80944,14.469464,0.0,0.0,0.0,0.0,1,1,0
183,'1',1,1,1,93.87775,19.613303,0.0,0.0,0.0,0.0,1,1,0
184,'1',1,1,1,76.916709,31.744798,0.0,0.0,0.0,0.0,1,1,0
185,'1',1,1,1,93.268528,3.438134,0.0,0.0,0.0,0.0,1,1,0
186,'1',1,1,1,92.221114,21.672864,0.0,0.0,0.0,0.0,1,1,0
187,'1',1,1,1,163.8891,73.256722,0.0,0.0,0.0,0.0,1,1,0
188,'1',1,1,1,53.146808,14.762756,0.0,0.0,0.0,0.0,1,1,0
189,'1',1,1,1,39.007399,3.6469169,0.0,0.0,0.0,0.0,1,1,0
192,'1',1,1,1,131.01594,31.623052,0.0,0.0,0.0,0.0,1,1,0
193,'1',1,1,1,77.65605,23.362786,0.0,0.0,0.0,0.0,1,1,0
194,'1',1,1,1,70.681819,16.974466,0.0,0.0,0.0,0.0,1,1,0
195,'1',1,1,1,80.464995,14.654426,0.0,0.0,0.0,0.0,1,1,0
196,'1',1,1,1,68.678582,13.070455,0.0,0.0,0.0,0.0,1,1,0
197,'1',1,1,1,38.369874,7.1977718,0.0,0.0,0.0,0.0,1,1,0
198,'1',1,1,1,52.283712,19.787616,0.0,0.0,0.0,0.0,1,1,0
199,'1',1,1,1,66.679247,2.5058577,0.0,0.0,0.0,0.0,1,1,0
200,'1',1,1,1,61.922848,16.822065,0.0,0.0,0.0,0.0,1,1,0
201,'1',1,1,1,75.085301,10.673837,0.0,0.0,0.0,0.0,1,1,0
202,'1',1,1,1,75.445478,7.4763981,0.0,0.0,0.0,0.0,1,1,0
203,'1',1,1,1,87.311704,47.77642,0.0,0.0,0.0,0.0,1,1,0
204,'1',1,1,1,48.883844,13.029987,0.0,0.0,0.0,0.0,1,1,0
205,'1',1,1,1,49.609832,37.268477,0.0,0.0,0.0,0.0,1,1,0
206,'1',1,1,1,34.434987,11.713269,0.0,0.0,0.0,0.0,1,1,0
207,'1',1,1,1,73.010358,14.02102,0.0,0.0,0.0,0.0,1,1,0
208,'1',1,1,1,42.843497,8.2248639,0.0,0.0,0.0,0.0,1,1,0
209,'1',1,1,1,102.283,14.093087,0.0,0.0,0.0,0.0,1,1,0
210,'1',1,1,1,40.283257,13.549747,0.0,0.0,0.0,0.0,1,1,0
211,'1',1,1,1,55.533771,10.478198,0.0,0.0,0.0,0.0,1,1,0
212,'1',1,1,1,42.931959,9.461712,0.0,0.0,0.0,0.0,1,1,0
213,'1',1,1,1,118.43144,25.488612,0.0,0.0,0.0,0.0,1,1,0
214,'1',1,1,1,76.773486,36.008752,0.0,0.0,0.0,0.0,1,1,0
215,'1',1,1,1,52.438174,15.214533,0.0,0.0,0.0,0.0,1,1,0
216,'1',1,1,1,63.710364,17.745517,0.0,0.0,0.0,0.0,1,1,0
217,'1',1,1,1,64.320623,24.076342,0.0,0.0,0.0,0.0,1,1,0
218,'1',1,1,1,63.523476,30.609688,0.0,0.0,0.0,0.0,1,1,0
219,'1',1,1,1,28.921845,7.1339415,0.0,0.0,0.0,0.0,1,1,0
220,'1',1,1,1,38.550198,13.162834,0.0,0.0,0.0,0.0,1,1,0
221,'1',1,1,1,55.423356,9.8928384,0.0,0.0,0.0,0.0,1,1,0
222,'1',1,1,1,71.250819,18.793297,0.0,0.0,0.0,0.0,1,1,0
...
0 / END OF LOAD DATA BEGIN FIXED SHUNT DATA
59,'1',1,0.0,30.242
116,'1',1,0.0,27.226
132,'1',1,0.0,26.017
135,'1',1,0.0,42.791
138,'1',1,0.0,49.221
156,'1',1,0.0,52.222
176,'1',1,0.0,95.518
214,'1',1,0.0,100.39
218,'1',1,0.0,24.179
226,'1',1,0.0,15.602
235,'1',1,0.0,20.424
240,'1',1,0.0,29.599
245,'1',1,0.0,16.257
248,'1',1,0.0,37.204
259,'1',1,0.0,19.758
0 / END OF FIXED SHUNT DATA BEGIN GENERATOR DATA
272,'1',46.9,17.950728,18.01,-2.298,1.0343582,0,46.9,0.0,1.0,0.0,0.0,1.0,1,1.0,46.9,22.026,1,1.0,0,1.0,0,1.0,0,1.0,0,1.0
275,'1',821.91538,167.33725,326.858,-72.832,1.0028084,0,888.2,0.0,1.0,0.0,0.0,1.0,0,1.0,888.2,146.11,1,1.0,0,1.0,0,1.0,0,1.0,0,1.0
276,'1',888.2,166.95793,326.858,-72.832,1.018,0,888.2,0.0,1.0,0.0,0.0,1.0,1,1.0,888.2,398.234,1,1.0,0,1.0,0,1.0,0,1.0,0,1.0
277,'1',25.0,5.8777186,9.6,-1.225,1.042,0,25.0,0.0,1.0,0.0,0.0,1.0,1,1.0,25.0,8.382,1,1.0,0,1.0,0,1.0,0,1.0,0,1.0
277,'2',25.0,5.8777186,9.6,-1.225,1.042,0,25.0,0.0,1.0,0.0,0.0,1.0,1,1.0,25.0,2.716,1,1.0,0,1.0,0,1.0,0,1.0,0,1.0
277,'3',25.0,5.8777186,9.6,-1.225,1.042,0,25.0,0.0,1.0,0.0,0.0,1.0,1,1.0,25.0,9.661,1,1.0,0,1.0,0,1.0,0,1.0,0,1.0
277,'4',25.0,5.8777186,9.6,-1.225,1.042,0,25.0,0.0,1.0,0.0,0.0,1.0,1,1.0,25.0,8.651,1,1.0,0,1.0,0,1.0,0,1.0,0,1.0
280,'1',158.7,80.778,80.778,-17.616,1.0424647,0,158.7,0.0,1.0,0.0,0.0,1.0,1,1.0,158.7,78.648,1,1.0,0,1.0,0,1.0,0,1.0,0,1.0
281,'1',127.48245,53.23453,80.778,-17.616,1.0253582,0,158.7,0.0,1.0,0.0,0.0,1.0,0,1.0,158.7,68.611,1,1.0,0,1.0,0,1.0,0,1.0,0,1.0
284,'1',217.333,39.038627,110.623,-24.124,1.0405,0,217.33,0.0,1.0,0.0,0.0,1.0,1,1.0,217.333,52.737,1,1.0,0,1.0,0,1.0,0,1.0,0,1.0
285,'1',217.333,34.40884,110.623,-24.124,1.0405,0,217.33,0.0,1.0,0.0,0.0,1.0,1,1.0,217.333,55.415,1,1.0,0,1.0,0,1.0,0,1.0,0,1.0
286,'1',217.333,35.845989,110.623,-24.124,1.0405,0,217.33,0.0,1.0,0.0,0.0,1.0,1,1.0,217.333,69.243,1,1.0,0,1.0,0,1.0,0,1.0,0,1.0
287,'1',195.9435,25.969328,110.623,-24.124,1.0325943,0,217.33,0.0,1.0,0.0,0.0,1.0,0,1.0,217.333,64.598,1,1.0,0,1.0,0,1.0,0,1.0,0,1.0
288,'1',90.935777,13.865688,110.623,-24.124,1.0325943,0,217.33,0.0,1.0,0.0,0.0,1.0,0,1.0,217.333,52.424,1,1.0,0,1.0,0,1.0,0,1.0,0,1.0
289,'1',217.333,40.20961,110.623,-24.124,1.0405,0,217.33,0.0,1.0,0.0,0.0,1.0,1,1.0,217.333,27.479,1,1.0,0,1.0,0,1.0,0,1.0,0,1.0
292,'1',0.5,0.18949779,0.192,-0.025,1.065,0,0.5,0.0,1.0,0.0,0.0,1.0,1,1.0,0.5,0.06,1,1.0,0,1.0,0,1.0,0,1.0,0,1.0
292,'2',0.5,0.18949779,0.192,-0.025,1.065,0,0.5,0.0,1.0,0.0,0.0,1.0,1,1.0,0.5,0.126,1,1.0,0,1.0,0,1.0,0,1.0,0,1.0
294,'1',17.100086,-1.998,9.162,-1.998,1.0327294,0,18.0,0.0,1.0,0.0,0.0,1.0,0,1.0,18.0,5.517,1,1.0,0,1.0,0,1.0,0,1.0,0,1.0
297,'1',178.467,41.793836,90.84,-19.81,1.063,0,178.47,0.0,1.0,0.0,0.0,1.0,1,1.0,178.467,82.766,1,1.0,0,1.0,0,1.0,0,1.0,0,1.0
298,'1',178.467,28.789874,90.84,-19.81,1.063,0,178.47,0.0,1.0,0.0,0.0,1.0,1,1.0,178.467,86.66,1,1.0,0,1.0,0,1.0,0,1.0,0,1.0
299,'1',158.60156,16.827015,90.84,-19.81,1.0556074,0,178.47,0.0,1.0,0.0,0.0,1.0,0,1.0,178.467,63.99,1,1.0,0,1.0,0,1.0,0,1.0,0,1.0
300,'1',178.467,20.989629,90.84,-19.81,1.063,0,178.47,0.0,1.0,0.0,0.0,1.0,1,1.0,178.467,63.655,1,1.0,0,1.0,0,1.0,0,1.0,0,1.0
301,'1',178.467,35.392658,90.84,-19.81,1.0556074,0,178.47,0.0,1.0,0.0,0.0,1.0,0,1.0,178.467,54.225,1,1.0,0,1.0,0,1.0,0,1.0,0,1.0
302,'1',178.467,26.253729,90.84,-19.81,1.063,0,178.47,0.0,1.0,0.0,0.0,1.0,1,1.0,178.467,63.864,1,1.0,0,1.0,0,1.0,0,1.0,0,1.0
303,'1',67.5,-1.47122,25.92,-3.308,1.0491189,0,67.5,0.0,1.0,0.0,0.0,1.0,1,1.0,67.5,16.712,1,1.0,0,1.0,0,1.0,0,1.0,0,1.0
303,'2',67.5,-1.47122,25.92,-3.308,1.0491189,0,67.5,0.0,1.0,0.0,0.0,1.0,1,1.0,67.5,13.758,1,1.0,0,1.0,0,1.0,0,1.0,0,1.0
306,'1',6.846811,3.262,3.262,-0.854,1.04,0,7.0,0.0,1.0,0.0,0.0,1.0,0,1.0,7.0,1.745,1,1.0,0,1.0,0,1.0,0,1.0,0,1.0
306,'2',7.0,1.9116664,3.262,-0.854,1.04,0,7.0,0.0,1.0,0.0,0.0,1.0,1,1.0,7.0,0.782,1,1.0,0,1.0,0,1.0,0,1.0,0,1.0
307,'1',33.7,9.2926857,12.941,-1.651,1.04,0,33.7,0.0,1.0,0.0,0.0,1.0,1,1.0,33.7,11.636,1,1.0,0,1.0,0,1.0,0,1.0,0,1.0
307,'2',33.7,9.2926857,12.941,-1.651,1.04,0,33.7,0.0,1.0,0.0,0.0,1.0,1,1.0,33.7,14.719,1,1.0,0,1.0,0,1.0,0,1.0,0,1.0
307,'3',33.7,4.3351822,12.941,-1.651,1.04,0,33.7,0.0,1.0,0.0,0.0,1.0,0,1.0,33.7,6.952,1,1.0,0,1.0,0,1.0,0,1.0,0,1.0
311,'1',982.40338,60.692571,428.597,-95.503,0.99811928,0,1164.67,0.0,1.0,0.0,0.0,1.0,0,1.0,1164.667,186.084,1,1.0,0,1.0,0,1.0,0,1.0,0,1.0
312,'1',1164.667,139.75649,428.597,-95.503,1.0045,0,1164.67,0.0,1.0,0.0,0.0,1.0,1,1.0,1164.667,454.387,1,1.0,0,1.0,0,1.0,0,1.0,0,1.0
313,'1',1164.667,112.41411,428.597,-95.503,1.0045,0,1164.67,0.0,1.0,0.0,0.0,1.0,1,1.0,1164.667,448.244,1,1.0,0,1.0,0,1.0,0,1.0,0,1.0
316,'1',332.617,44.807295,169.302,-36.92,1.0495,0,332.62,0.0,1.0,0.0,0.0,1.0,1,1.0,332.617,142.367,1,1.0,0,1.0,0,1.0,0,1.0,0,1.0
317,'1',135.58371,26.332617,169.302,-36.92,1.038534,0,332.62,0.0,1.0,0.0,0.0,1.0,0,1.0,332.617,38.676,1,1.0,0,1.0,0,1.0,0,1.0,0,1.0
318,'1',332.617,53.794161,169.302,-36.92,1.0495,0,332.62,0.0,1.0,0.0,0.0,1.0,1,1.0,332.617,36.952,1,1.0,0,1.0,0,1.0,0,1.0,0,1.0
319,'1',332.617,66.862574,169.302,-36.92,1.0495,0,332.62,0.0,1.0,0.0,0.0,1.0,1,1.0,332.617,85.73,1,1.0,0,1.0,0,1.0,0,1.0,0,1.0
320,'1',217.96192,30.766739,169.302,-36.92,1.038534,0,332.62,0.0,1.0,0.0,0.0,1.0,0,1.0,332.617,130.581,1,1.0,0,1.0,0,1.0,0,1.0,0,1.0
321,'1',172.81314,24.177832,169.302,-36.92,1.038534,0,332.62,0.0,1.0,0.0,0.0,1.0,0,1.0,332.617,84.68,1,1.0,0,1.0,0,1.0,0,1.0,0,1.0
324,'1',116.59656,31.951717,61.08,-13.32,1.0408311,0,120.0,0.0,1.0,0.0,0.0,1.0,0,1.0,120.0,31.702,1,1.0,0,1.0,0,1.0,0,1.0,0,1.0
325,'1',120.0,34.992627,61.08,-13.32,1.054,0,120.0,0.0,1.0,0.0,0.0,1.0,1,1.0,120.0,52.66,1,1.0,0,1.0,0,1.0,0,1.0,0,1.0
326,'1',120.0,28.62797,61.08,-13.32,1.054,0,120.0,0.0,1.0,0.0,0.0,1.0,1,1.0,120.0,57.831,1,1.0,0,1.0,0,1.0,0,1.0,0,1.0
327,'1',97.759667,21.777139,61.08,-13.32,1.0408311,0,120.0,0.0,1.0,0.0,0.0,1.0,0,1.0,120.0,55.972,1,1.0,0,1.0,0,1.0,0,1.0,0,1.0
328,'1',120.0,37.864333,61.08,-13.32,1.054,0,120.0,0.0,1.0,0.0,0.0,1.0,1,1.0,120.0,48.448,1,1.0,0,1.0,0,1.0,0,1.0,0,1.0
329,'1',120.0,34.488901,61.08,-13.32,1.054,0,120.0,0.0,1.0,0.0,0.0,1.0,1,1.0,120.0,20.655,1,1.0,0,1.0,0,1.0,0,1.0,0,1.0
330,'1',1.0,0.31786432,0.466,-0.122,1.0218474,0,1.0,0.0,1.0,0.0,0.0,1.0,1,1.0,1.0,0.259,1,1.0,0,1.0,0,1.0,0,1.0,0,1.0
330,'2',1.0,0.31786432,0.466,-0.122,1.0218474,0,1.0,0.0,1.0,0.0,0.0,1.0,1,1.0,1.0,0.143,1,1.0,0,1.0,0,1.0,0,1.0,0,1.0
330,'3',1.0,0.31786432,0.466,-0.122,1.0218474,0,1.0,0.0,1.0,0.0,0.0,1.0,1,1.0,1.0,0.348,1,1.0,0,1.0,0,1.0,0,1.0,0,1.0
330,'4',1.0,0.31786432,0.466,-0.122,1.0218474,0,1.0,0.0,1.0,0.0,0.0,1.0,1,1.0,1.0,0.409,1,1.0,0,1.0,0,1.0,0,1.0,0,1.0
334,'1',69.0,0.26914598,32.154,-8.418,1.04,0,69.0,0.0,1.0,0.0,0.0,1.0,1,1.0,69.0,15.846,1,1.0,0,1.0,0,1.0,0,1.0,0,1.0
335,'1',12.817873,-3.7296704,32.154,-8.418,1.0404095,0,69.0,0.0,1.0,0.0,0.0,1.0,0,1.0,69.0,12.549,1,1.0,0,1.0,0,1.0,0,1.0,0,1.0
338,'1',234.85,67.251453,119.539,-26.068,1.0585,0,234.85,0.0,1.0,0.0,0.0,1.0,1,1.0,234.85,113.344,1,1.0,0,1.0,0,1.0,0,1.0,0,1.0
339,'1',234.85,72.852696,119.539,-26.068,1.0585,0,234.85,0.0,1.0,0.0,0.0,1.0,1,1.0,234.85,96.41,1,1.0,0,1.0,0,1.0,0,1.0,0,1.0
340,'1',215.31509,50.932773,119.539,-26.068,1.0416488,0,234.85,0.0,1.0,0.0,0.0,1.0,0,1.0,234.85,83.983,1,1.0,0,1.0,0,1.0,0,1.0,0,1.0
341,'1',234.85,55.278001,119.539,-26.068,1.0585,0,234.85,0.0,1.0,0.0,0.0,1.0,1,1.0,234.85,93.839,1,1.0,0,1.0,0,1.0,0,1.0,0,1.0
343,'1',74.570655,26.686294,83.569,-21.879,1.0333121,0,179.33,0.0,1.0,0.0,0.0,1.0,0,1.0,179.333,41.662,1,1.0,0,1.0,0,1.0,0,1.0,0,1.0
344,'1',151.79087,33.125822,83.569,-21.879,1.054,0,179.33,0.0,1.0,0.0,0.0,1.0,1,1.0,179.333,38.561,1,1.0,0,1.0,0,1.0,0,1.0,0,1.0
345,'1',82.483655,14.255613,83.569,-21.879,1.0333121,0,179.33,0.0,1.0,0.0,0.0,1.0,0,1.0,179.333,80.146,1,1.0,0,1.0,0,1.0,0,1.0,0,1.0
346,'1',48.5,-0.81666461,24.687,-5.384,1.0400638,0,48.5,0.0,1.0,0.0,0.0,1.0,1,1.0,48.5,17.591,1,1.0,0,1.0,0,1.0,0,1.0,0,1.0
346,'2',48.5,-0.81666461,24.687,-5.384,1.0400638,0,48.5,0.0,1.0,0.0,0.0,1.0,1,1.0,48.5,22.675,1,1.0,0,1.0,0,1.0,0,1.0,0,1.0
347,'1',48.03459,28.8,28.8,-3.675,1.0251549,0,75.0,0.0,1.0,0.0,0.0,1.0,0,1.0,75.0,36.562,1,1.0,0,1.0,0,1.0,0,1.0,0,1.0
347,'2',75.0,28.8,28.8,-3.675,1.0251549,0,75.0,0.0,1.0,0.0,0.0,1.0,1,1.0,75.0,33.345,1,1.0,0,1.0,0,1.0,0,1.0,0,1.0
347,'3',75.0,28.8,28.8,-3.675,1.0251549,0,75.0,0.0,1.0,0.0,0.0,1.0,1,1.0,75.0,29.918,1,1.0,0,1.0,0,1.0,0,1.0,0,1.0
350,'1',28.8,-1.411,11.059,-1.411,1.0416163,0,28.8,0.0,1.0,0.0,0.0,1.0,1,1.0,28.8,6.676,1,1.0,0,1.0,0,1.0,0,1.0,0,1.0
351,'1',28.8,5.5559972,11.059,-1.411,1.037,0,28.8,0.0,1.0,0.0,0.0,1.0,1,1.0,28.8,14.185,1,1.0,0,1.0,0,1.0,0,1.0,0,1.0
351,'2',28.8,5.5559972,11.059,-1.411,1.037,0,28.8,0.0,1.0,0.0,0.0,1.0,1,1.0,28.8,11.192,1,1.0,0,1.0,0,1.0,0,1.0,0,1.0
351,'3',28.8,5.5559972,11.059,-1.411,1.037,0,28.8,0.0,1.0,0.0,0.0,1.0,1,1.0,28.8,10.034,1,1.0,0,1.0,0,1.0,0,1.0,0,1.0
354,'1',110.0,-0.94287359,55.99,-12.21,1.037,0,110.0,0.0,1.0,0.0,0.0,1.0,1,1.0,110.0,33.177,1,1.0,0,1.0,0,1.0,0,1.0,0,1.0
356,'1',30.333,10.173078,11.648,-1.486,1.04,0,30.33,0.0,1.0,0.0,0.0,1.0,1,1.0,30.333,13.679,1,1.0,0,1.0,0,1.0,0,1.0,0,1.0
356,'2',30.333,10.173078,11.648,-1.486,1.04,0,30.33,0.0,1.0,0.0,0.0,1.0,1,1.0,30.333,5.625,1,1.0,0,1.0,0,1.0,0,1.0,0,1.0
356,'3',27.08711,3.654361,11.648,-1.486,1.04,0,30.33,0.0,1.0,0.0,0.0,1.0,0,1.0,30.333,12.388,1,1.0,0,1.0,0,1.0,0,1.0,0,1.0
357,'1',21.2,-2.586,9.879,-2.586,1.0410601,0,21.2,0.0,1.0,0.0,0.0,1.0,1,1.0,21.2,6.174,1,1.0,0,1.0,0,1.0,0,1.0,0,1.0
358,'1',52.65,8.0606335,20.218,-2.58,1.036,0,52.65,0.0,1.0,0.0,0.0,1.0,1,1.0,52.65,20.275,1,1.0,0,1.0,0,1.0,0,1.0,0,1.0
358,'2',52.65,8.0606335,20.218,-2.58,1.036,0,52.65,0.0,1.0,0.0,0.0,1.0,1,1.0,52.65,25.147,1,1.0,0,1.0,0,1.0,0,1.0,0,1.0
358,'3',52.65,8.0606335,20.218,-2.58,1.036,0,52.65,0.0,1.0,0.0,0.0,1.0,1,1.0,52.65,19.396,1,1.0,0,1.0,0,1.0,0,1.0,0,1.0
358,'4',42.924491,4.6604123,20.218,-2.58,1.036,0,52.65,0.0,1.0,0.0,0.0,1.0,0,1.0,52.65,15.946,1,1.0,0,1.0,0,1.0,0,1.0,0,1.0
359,'1',27.6,13.549138,14.048,-3.064,1.0387779,0,27.6,0.0,1.0,0.0,0.0,1.0,0,1.0,27.6,11.587,1,1.0,0,1.0,0,1.0,0,1.0,0,1.0
359,'2',27.6,14.048,14.048,-3.064,1.0387779,0,27.6,0.0,1.0,0.0,0.0,1.0,1,1.0,27.6,13.293,1,1.0,0,1.0,0,1.0,0,1.0,0,1.0
362,'1',81.110201,328.763,328.763,-86.071,1.0611672,0,705.5,0.0,1.0,0.0,0.0,1.0,1,1.0,705.5,78.707,1,1.0,0,1.0,0,1.0,0,1.0,0,1.0
363,'1',80.594201,10.686051,328.763,-86.071,1.04,0,705.5,0.0,1.0,0.0,0.0,1.0,1,1.0,705.5,78.191,1,1.0,0,1.0,0,1.0,0,1.0,0,1.0
364,'1',398.23698,13.392842,328.763,-86.071,1.0386502,0,705.5,0.0,1.0,0.0,0.0,1.0,0,1.0,705.5,259.966,1,1.0,0,1.0,0,1.0,0,1.0,0,1.0
365,'1',288.5162,8.9700295,328.763,-86.071,1.04,0,705.5,0.0,1.0,0.0,0.0,1.0,1,1.0,705.5,286.113,1,1.0,0,1.0,0,1.0,0,1.0,0,1.0
367,'1',20.5,4.01834,7.872,-1.005,1.04,0,20.5,0.0,1.0,0.0,0.0,1.0,1,1.0,20.5,2.229,1,1.0,0,1.0,0,1.0,0,1.0,0,1.0
368,'1',20.5,5.1481034,7.872,-1.005,1.04,0,20.5,0.0,1.0,0.0,0.0,1.0,1,1.0,20.5,9.051,1,1.0,0,1.0,0,1.0,0,1.0,0,1.0
368,'2',16.566335,1.9630251,7.872,-1.005,1.04,0,20.5,0.0,1.0,0.0,0.0,1.0,0,1.0,20.5,6.32,1,1.0,0,1.0,0,1.0,0,1.0,0,1.0
369,'1',13.336313,7.872,7.872,-1.005,0.97293172,0,20.5,0.0,1.0,0.0,0.0,1.0,0,1.0,20.5,9.565,1,1.0,0,1.0,0,1.0,0,1.0,0,1.0
371,'1',116.79809,-31.983706,132.437,-34.672,1.0279419,0,284.2,0.0,1.0,0.0,0.0,1.0,1,1.0,284.2,73.732,1,1.0,0,1.0,0,1.0,0,1.0,0,1.0
372,'1',134.86609,2.8494236,132.437,-34.672,1.04,0,284.2,0.0,1.0,0.0,0.0,1.0,1,1.0,284.2,133.898,1,1.0,0,1.0,0,1.0,0,1.0,0,1.0
375,'1',25.0,0.013071988,12.725,-2.775,1.04,0,25.0,0.0,1.0,0.0,0.0,1.0,1,1.0,25.0,6.759,1,1.0,0,1.0,0,1.0,0,1.0,0,1.0
378,'1',231.775,3.0072074,117.973,-25.727,1.0045,0,231.77,0.0,1.0,0.0,0.0,1.0,1,1.0,231.775,65.628,1,1.0,0,1.0,0,1.0,0,1.0,0,1.0
379,'1',231.775,5.4868851,117.973,-25.727,1.0045,0,231.77,0.0,1.0,0.0,0.0,1.0,1,1.0,231.775,66.661,1,1.0,0,1.0,0,1.0,0,1.0,0,1.0
380,'1',231.775,6.3744324,117.973,-25.727,1.0045,0,231.77,0.0,1.0,0.0,0.0,1.0,1,1.0,231.775,31.037,1,1.0,0,1.0,0,1.0,0,1.0,0,1.0
381,'1',231.775,4.6520138,117.973,-25.727,1.0045,0,231.77,0.0,1.0,0.0,0.0,1.0,1,1.0,231.775,113.618,1,1.0,0,1.0,0,1.0,0,1.0,0,1.0
382,'1',5.8521216,-0.363,2.842,-0.363,1.0403632,0,7.4,0.0,1.0,0.0,0.0,1.0,0,1.0,7.4,3.554,1,1.0,0,1.0,0,1.0,0,1.0,0,1.0
382,'2',7.4,-0.24762456,2.842,-0.363,1.0403632,0,7.4,0.0,1.0,0.0,0.0,1.0,1,1.0,7.4,2.925,1,1.0,0,1.0,0,1.0,0,1.0,0,1.0
382,'3',7.4,-0.24762456,2.842,-0.363,1.0403632,0,7.4,0.0,1.0,0.0,0.0,1.0,1,1.0,7.4,0.878,1,1.0,0,1.0,0,1.0,0,1.0,0,1.0
382,'4',7.4,-0.24762456,2.842,-0.363,1.0403632,0,7.4,0.0,1.0,0.0,0.0,1.0,1,1.0,7.4,2.193,1,1.0,0,1.0,0,1.0,0,1.0,0,1.0
384,'1',11.916275,1.1377978,5.76,-0.735,1.04,0,15.0,0.0,1.0,0.0,0.0,1.0,0,1.0,15.0,5.179,1,1.0,0,1.0,0,1.0,0,1.0,0,1.0
384,'2',15.0,2.012582,5.76,-0.735,1.04,0,15.0,0.0,1.0,0.0,0.0,1.0,1,1.0,15.0,7.335,1,1.0,0,1.0,0,1.0,0,1.0,0,1.0
384,'3',15.0,2.012582,5.76,-0.735,1.04,0,15.0,0.0,1.0,0.0,0.0,1.0,1,1.0,15.0,3.146,1,1.0,0,1.0,0,1.0,0,1.0,0,1.0
384,'4',15.0,2.012582,5.76,-0.735,1.04,0,15.0,0.0,1.0,0.0,0.0,1.0,1,1.0,15.0,2.378,1,1.0,0,1.0,0,1.0,0,1.0,0,1.0
386,'1',67.333,-0.47393417,25.856,-3.299,1.046,0,67.33,0.0,1.0,0.0,0.0,1.0,1,1.0,67.333,27.475,1,1.0,0,1.0,0,1.0,0,1.0,0,1.0
386,'2',67.333,-0.47393417,25.856,-3.299,1.046,0,67.33,0.0,1.0,0.0,0.0,1.0,1,1.0,67.333,30.139,1,1.0,0,1.0,0,1.0,0,1.0,0,1.0
386,'3',67.333,-0.47393417,25.856,-3.299,1.046,0,67.33,0.0,1.0,0.0,0.0,1.0,1,1.0,67.333,11.032,1,1.0,0,1.0,0,1.0,0,1.0,0,1.0
386,'4',67.333,-0.47393417,25.856,-3.299,1.046,0,67.33,0.0,1.0,0.0,0.0,1.0,1,1.0,67.333,25.208,1,1.0,0,1.0,0,1.0,0,1.0,0,1.0
386,'5',67.333,-0.47393417,25.856,-3.299,1.046,0,67.33,0.0,1.0,0.0,0.0,1.0,1,1.0,67.333,12.595,1,1.0,0,1.0,0,1.0,0,1.0,0,1.0
386,'6',52.466824,-2.7831158,25.856,-3.299,1.046,0,67.33,0.0,1.0,0.0,0.0,1.0,0,1.0,67.333,7.468,1,1.0,0,1.0,0,1.0,0,1.0,0,1.0
391,'1',141.5,72.023,72.023,-15.707,0.98427844,0,141.5,0.0,1.0,0.0,0.0,1.0,1,1.0,141.5,37.246,1,1.0,0,1.0,0,1.0,0,1.0,0,1.0
392,'1',113.05763,72.023,72.023,-15.707,0.96377086,0,141.5,0.0,1.0,0.0,0.0,1.0,0,1.0,141.5,45.823,1,1.0,0,1.0,0,1.0,0,1.0,0,1.0
393,'1',118.47992,72.023,72.023,-15.707,0.95823194,0,141.5,0.0,1.0,0.0,0.0,1.0,0,1.0,141.5,59.806,1,1.0,0,1.0,0,1.0,0,1.0,0,1.0
394,'1',126.6064,72.023,72.023,-15.707,0.95823194,0,141.5,0.0,1.0,0.0,0.0,1.0,0,1.0,141.5,46.001,1,1.0,0,1.0,0,1.0,0,1.0,0,1.0
395,'1',29.5,11.328,11.328,-1.445,1.0247654,0,29.5,0.0,1.0,0.0,0.0,1.0,1,1.0,29.5,8.66,1,1.0,0,1.0,0,1.0,0,1.0,0,1.0
395,'2',29.5,11.328,11.328,-1.445,1.0247654,0,29.5,0.0,1.0,0.0,0.0,1.0,1,1.0,29.5,14.002,1,1.0,0,1.0,0,1.0,0,1.0,0,1.0
396,'1',29.5,3.4997185,11.328,-1.445,1.0507471,0,29.5,0.0,1.0,0.0,0.0,1.0,1,1.0,29.5,14.604,1,1.0,0,1.0,0,1.0,0,1.0,0,1.0
396,'2',29.5,3.4997185,11.328,-1.445,1.0507471,0,29.5,0.0,1.0,0.0,0.0,1.0,1,1.0,29.5,7.512,1,1.0,0,1.0,0,1.0,0,1.0,0,1.0
396,'3',29.5,3.4997185,11.328,-1.445,1.0507471,0,29.5,0.0,1.0,0.0,0.0,1.0,1,1.0,29.5,6.181,1,1.0,0,1.0,0,1.0,0,1.0,0,1.0
396,'4',29.5,3.4997185,11.328,-1.445,1.0507471,0,29.5,0.0,1.0,0.0,0.0,1.0,1,1.0,29.5,13.848,1,1.0,0,1.0,0,1.0,0,1.0,0,1.0
398,'1',79.333,16.663549,40.381,-8.806,1.037,0,79.33,0.0,1.0,0.0,0.0,1.0,1,1.0,79.333,28.412,1,1.0,0,1.0,0,1.0,0,1.0,0,1.0
398,'2',79.333,16.663549,40.381,-8.806,1.037,0,79.33,0.0,1.0,0.0,0.0,1.0,1,1.0,79.333,26.903,1,1.0,0,1.0,0,1.0,0,1.0,0,1.0
398,'3',79.333,16.663549,40.381,-8.806,1.037,0,79.33,0.0,1.0,0.0,0.0,1.0,1,1.0,79.333,17.147,1,1.0,0,1.0,0,1.0,0,1.0,0,1.0
398,'4',79.333,16.663549,40.381,-8.806,1.037,0,79.33,0.0,1.0,0.0,0.0,1.0,1,1.0,79.333,18.276,1,1.0,0,1.0,0,1.0,0,1.0,0,1.0
398,'5',79.333,16.663549,40.381,-8.806,1.037,0,79.33,0.0,1.0,0.0,0.0,1.0,1,1.0,79.333,31.607,1,1.0,0,1.0,0,1.0,0,1.0,0,1.0
398,'6',79.333,16.663549,40.381,-8.806,1.037,0,79.33,0.0,1.0,0.0,0.0,1.0,1,1.0,79.333,27.502,1,1.0,0,1.0,0,1.0,0,1.0,0,1.0
399,'1',1.5,0.576,0.576,-0.074,1.0380655,0,1.5,0.0,1.0,0.0,0.0,1.0,1,1.0,1.5,0.226,1,1.0,0,1.0,0,1.0,0,1.0,0,1.0
399,'2',1.4480561,0.576,0.576,-0.074,1.0380655,0,1.5,0.0,1.0,0.0,0.0,1.0,0,1.0,1.5,0.589,1,1.0,0,1.0,0,1.0,0,1.0,0,1.0
401,'1',60.023143,-3.0276609,31.176,-6.799,1.0411894,0,61.25,0.0,1.0,0.0,0.0,1.0,0,1.0,61.25,22.338,1,1.0,0,1.0,0,1.0,0,1.0,0,1.0
402,'1',61.25,-1.9824507,31.176,-6.799,1.0365,0,61.25,0.0,1.0,0.0,0.0,1.0,1,1.0,61.25,23.864,1,1.0,0,1.0,0,1.0,0,1.0,0,1.0
404,'1',42.5,-2.083,16.32,-2.083,1.042,0,42.5,0.0,1.0,0.0,0.0,1.0,1,1.0,42.5,19.52,1,1.0,0,1.0,0,1.0,0,1.0,0,1.0
404,'2',42.5,-2.083,16.32,-2.083,1.042,0,42.5,0.0,1.0,0.0,0.0,1.0,1,1.0,42.5,15.533,1,1.0,0,1.0,0,1.0,0,1.0,0,1.0
404,'3',42.5,-2.083,16.32,-2.083,1.042,0,42.5,0.0,1.0,0.0,0.0,1.0,1,1.0,42.5,13.013,1,1.0,0,1.0,0,1.0,0,1.0,0,1.0
404,'4',42.5,-2.083,16.32,-2.083,1.042,0,42.5,0.0,1.0,0.0,0.0,1.0,1,1.0,42.5,12.661,1,1.0,0,1.0,0,1.0,0,1.0,0,1.0
407,'1',109.0,31.516979,55.481,-12.099,1.054,0,109.0,0.0,1.0,0.0,0.0,1.0,1,1.0,109.0,18.987,1,1.0,0,1.0,0,1.0,0,1.0,0,1.0
408,'1',109.0,22.913804,55.481,-12.099,1.054,0,109.0,0.0,1.0,0.0,0.0,1.0,1,1.0,109.0,14.731,1,1.0,0,1.0,0,1.0,0,1.0,0,1.0
409,'1',109.0,18.92683,55.481,-12.099,1.054,0,109.0,0.0,1.0,0.0,0.0,1.0,1,1.0,109.0,32.57,1,1.0,0,1.0,0,1.0,0,1.0,0,1.0
410,'1',109.0,19.652421,55.481,-12.099,1.054,0,109.0,0.0,1.0,0.0,0.0,1.0,1,1.0,109.0,22.306,1,1.0,0,1.0,0,1.0,0,1.0,0,1.0
411,'1',109.0,16.860642,55.481,-12.099,1.054,0,109.0,0.0,1.0,0.0,0.0,1.0,1,1.0,109.0,14.143,1,1.0,0,1.0,0,1.0,0,1.0,0,1.0
412,'1',109.0,19.060336,55.481,-12.099,1.054,0,109.0,0.0,1.0,0.0,0.0,1.0,1,1.0,109.0,23.483,1,1.0,0,1.0,0,1.0,0,1.0,0,1.0
413,'1',53.9,0.44416079,20.698,-2.641,1.04,0,53.9,0.0,1.0,0.0,0.0,1.0,1,1.0,53.9,11.654,1,1.0,0,1.0,0,1.0,0,1.0,0,1.0
416,'1',106.02849,52.240349,165.029,-43.205,0.99628211,0,354.14,0.0,1.0,0.0,0.0,1.0,0,1.0,354.14,67.963,1,1.0,0,1.0,0,1.0,0,1.0,0,1.0
417,'1',132.38034,-0.060523402,165.029,-43.205,1.04,0,354.14,0.0,1.0,0.0,0.0,1.0,1,1.0,354.14,131.174,1,1.0,0,1.0,0,1.0,0,1.0,0,1.0
418,'1',152.57048,-25.436473,165.029,-43.205,1.0398694,0,354.14,0.0,1.0,0.0,0.0,1.0,0,1.0,354.14,149.645,1,1.0,0,1.0,0,1.0,0,1.0,0,1.0
419,'1',57.849335,51.408845,165.029,-43.205,1.009,0,354.14,0.0,1.0,0.0,0.0,1.0,1,1.0,354.14,56.643,1,1.0,0,1.0,0,1.0,0,1.0,0,1.0
420,'1',126.35634,44.587687,165.029,-43.205,1.009,0,354.14,0.0,1.0,0.0,0.0,1.0,1,1.0,354.14,67.901,1,1.0,0,1.0,0,1.0,0,1.0,0,1.0
421,'1',42.818776,-1.3381268,26.213,-5.717,1.041,0,51.5,0.0,1.0,0.0,0.0,1.0,0,1.0,51.5,24.828,1,1.0,0,1.0,0,1.0,0,1.0,0,1.0
421,'2',51.5,6.815862,26.213,-5.717,1.041,0,51.5,0.0,1.0,0.0,0.0,1.0,1,1.0,51.5,23.937,1,1.0,0,1.0,0,1.0,0,1.0,0,1.0
424,'1',176.59972,6.0782412,125.82,-32.94,1.0585,0,270.0,0.0,1.0,0.0,0.0,1.0,1,1.0,270.0,112.797,1,1.0,0,1.0,0,1.0,0,1.0,0,1.0
425,'1',115.52311,6.0670239,125.82,-32.94,1.0572204,0,270.0,0.0,1.0,0.0,0.0,1.0,0,1.0,270.0,87.627,1,1.0,0,1.0,0,1.0,0,1.0,0,1.0
426,'1',103.73572,-14.084957,125.82,-32.94,1.04,0,270.0,0.0,1.0,0.0,0.0,1.0,1,1.0,270.0,102.816,1,1.0,0,1.0,0,1.0,0,1.0,0,1.0
427,'1',168.82972,5.7032412,125.82,-32.94,1.0585,0,270.0,0.0,1.0,0.0,0.0,1.0,1,1.0,270.0,99.844,1,1.0,0,1.0,0,1.0,0,1.0,0,1.0
428,'1',119.36332,7.9727656,125.82,-32.94,1.0572204,0,270.0,0.0,1.0,0.0,0.0,1.0,0,1.0,270.0,67.953,1,1.0,0,1.0,0,1.0,0,1.0,0,1.0
431,'1',225.0,66.015957,114.525,-24.975,1.0135,0,225.0,0.0,1.0,0.0,0.0,1.0,1,1.0,225.0,54.19,1,1.0,0,1.0,0,1.0,0,1.0,0,1.0
432,'1',225.0,76.511725,114.525,-24.975,1.0135,0,225.0,0.0,1.0,0.0,0.0,1.0,1,1.0,225.0,108.754,1,1.0,0,1.0,0,1.0,0,1.0,0,1.0
433,'1',225.0,74.627884,114.525,-24.975,1.0135,0,225.0,0.0,1.0,0.0,0.0,1.0,1,1.0,225.0,75.67,1,1.0,0,1.0,0,1.0,0,1.0,0,1.0
434,'1',225.0,85.830473,114.525,-24.975,1.0135,0,225.0,0.0,1.0,0.0,0.0,1.0,1,1.0,225.0,89.064,1,1.0,0,1.0,0,1.0,0,1.0,0,1.0
437,'1',208.43683,114.83,114.83,-25.042,0.96670012,0,225.6,0.0,1.0,0.0,0.0,1.0,0,1.0,225.6,110.17,1,1.0,0,1.0,0,1.0,0,1.0,0,1.0
438,'1',80.925295,114.83,114.83,-25.042,0.96670012,0,225.6,0.0,1.0,0.0,0.0,1.0,0,1.0,225.6,58.277,1,1.0,0,1.0,0,1.0,0,1.0,0,1.0
439,'1',225.6,113.38832,114.83,-25.042,0.99755385,0,225.6,0.0,1.0,0.0,0.0,1.0,1,1.0,225.6,90.164,1,1.0,0,1.0,0,1.0,0,1.0,0,1.0
440,'1',225.6,113.39736,114.83,-25.042,0.99739349,0,225.6,0.0,1.0,0.0,0.0,1.0,1,1.0,225.6,31.8,1,1.0,0,1.0,0,1.0,0,1.0,0,1.0
441,'1',42.7,11.285485,16.397,-2.092,1.04,0,42.7,0.0,1.0,0.0,0.0,1.0,1,1.0,42.7,11.334,1,1.0,0,1.0,0,1.0,0,1.0,0,1.0
441,'2',42.7,11.285485,16.397,-2.092,1.04,0,42.7,0.0,1.0,0.0,0.0,1.0,1,1.0,42.7,17.876,1,1.0,0,1.0,0,1.0,0,1.0,0,1.0
441,'3',42.7,11.285485,16.397,-2.092,1.04,0,42.7,0.0,1.0,0.0,0.0,1.0,1,1.0,42.7,15.695,1,1.0,0,1.0,0,1.0,0,1.0,0,1.0
443,'1',3.0,0.96724305,1.527,-0.333,1.0248367,0,3.0,0.0,1.0,0.0,0.0,1.0,0,1.0,3.0,1.43,1,1.0,0,1.0,0,1.0,0,1.0,0,1.0
443,'2',3.0,1.527,1.527,-0.333,1.0248367,0,3.0,0.0,1.0,0.0,0.0,1.0,0,1.0,3.0,0.466,1,1.0,0,1.0,0,1.0,0,1.0,0,1.0
444,'1',3.0,1.527,1.527,-0.333,1.0368534,0,3.0,0.0,1.0,0.0,0.0,1.0,1,1.0,3.0,1.141,1,1.0,0,1.0,0,1.0,0,1.0,0,1.0
444,'2',2.6837753,1.0686932,1.527,-0.333,1.0368534,0,3.0,0.0,1.0,0.0,0.0,1.0,0,1.0,3.0,1.295,1,1.0,0,1.0,0,1.0,0,1.0,0,1.0
448,'1',135.00298,-23.938977,132.036,-34.567,1.04,0,283.34,0.0,1.0,0.0,0.0,1.0,1,1.0,283.34,129.582,1,1.0,0,1.0,0,1.0,0,1.0,0,1.0
449,'1',138.71516,-24.016585,132.036,-34.567,1.04,0,283.34,0.0,1.0,0.0,0.0,1.0,1,1.0,283.34,137.75,1,1.0,0,1.0,0,1.0,0,1.0,0,1.0
450,'1',148.28516,132.036,132.036,-34.567,1.0166678,0,283.34,0.0,1.0,0.0,0.0,1.0,1,1.0,283.34,113.319,1,1.0,0,1.0,0,1.0,0,1.0,0,1.0
451,'1',124.99516,132.036,132.036,-34.567,1.0187082,0,283.34,0.0,1.0,0.0,0.0,1.0,1,1.0,283.34,84.208,1,1.0,0,1.0,0,1.0,0,1.0,0,1.0
452,'1',153.99516,132.036,132.036,-34.567,1.0152183,0,283.34,0.0,1.0,0.0,0.0,1.0,1,1.0,283.34,66.152,1,1.0,0,1.0,0,1.0,0,1.0,0,1.0
453,'1',17.888158,9.331,9.331,-1.191,1.0212174,0,24.3,0.0,1.0,0.0,0.0,1.0,0,1.0,24.3,11.536,1,1.0,0,1.0,0,1.0,0,1.0,0,1.0
453,'2',24.3,8.8984106,9.331,-1.191,1.0212174,0,24.3,0.0,1.0,0.0,0.0,1.0,1,1.0,24.3,10.913,1,1.0,0,1.0,0,1.0,0,1.0,0,1.0
453,'3',24.3,8.8984106,9.331,-1.191,1.0212174,0,24.3,0.0,1.0,0.0,0.0,1.0,1,1.0,24.3,9.205,1,1.0,0,1.0,0,1.0,0,1.0,0,1.0
456,'1',187.0,87.407263,95.183,-20.757,1.018,0,187.0,0.0,1.0,0.0,0.0,1.0,1,1.0,187.0,76.093,1,1.0,0,1.0,0,1.0,0,1.0,0,1.0
457,'1',187.0,73.09094,95.183,-20.757,1.013,0,187.0,0.0,1.0,0.0,0.0,1.0,1,1.0,187.0,45.01,1,1.0,0,1.0,0,1.0,0,1.0,0,1.0
458,'1',187.0,85.508983,95.183,-20.757,1.018,0,187.0,0.0,1.0,0.0,0.0,1.0,1,1.0,187.0,30.393,1,1.0,0,1.0,0,1.0,0,1.0,0,1.0
459,'1',187.0,93.953229,95.183,-20.757,1.018,0,187.0,0.0,1.0,0.0,0.0,1.0,1,1.0,187.0,76.131,1,1.0,0,1.0,0,1.0,0,1.0,0,1.0
462,'1',274.267,12.932928,139.602,-30.444,1.0045,0,274.27,0.0,1.0,0.0,0.0,1.0,1,1.0,274.267,109.757,1,1.0,0,1.0,0,1.0,0,1.0,0,1.0
463,'1',274.267,12.285931,139.602,-30.444,1.0045,0,274.27,0.0,1.0,0.0,0.0,1.0,1,1.0,274.267,78.369,1,1.0,0,1.0,0,1.0,0,1.0,0,1.0
464,'1',125.68162,-0.8944263,139.602,-30.444,1.0030963,0,274.27,0.0,1.0,0.0,0.0,1.0,0,1.0,274.267,58.535,1,1.0,0,1.0,0,1.0,0,1.0,0,1.0
466,'1',25.25,9.696,9.696,-1.237,1.0691907,0,25.25,0.0,1.0,0.0,0.0,1.0,1,1.0,25.25,10.571,1,1.0,0,1.0,0,1.0,0,1.0,0,1.0
466,'2',25.25,9.696,9.696,-1.237,1.0691907,0,25.25,0.0,1.0,0.0,0.0,1.0,1,1.0,25.25,5.746,1,1.0,0,1.0,0,1.0,0,1.0,0,1.0
470,'1',185.01109,23.756581,262.125,-68.625,1.04,0,562.5,0.0,1.0,0.0,0.0,1.0,1,1.0,562.5,183.095,1,1.0,0,1.0,0,1.0,0,1.0,0,1.0
471,'1',92.662089,27.043126,262.125,-68.625,1.04,0,562.5,0.0,1.0,0.0,0.0,1.0,1,1.0,562.5,90.746,1,1.0,0,1.0,0,1.0,0,1.0,0,1.0
472,'1',24.5,11.284108,12.471,-2.719,1.041,0,24.5,0.0,1.0,0.0,0.0,1.0,1,1.0,24.5,7.711,1,1.0,0,1.0,0,1.0,0,1.0,0,1.0
472,'2',24.5,11.284108,12.471,-2.719,1.041,0,24.5,0.0,1.0,0.0,0.0,1.0,1,1.0,24.5,10.439,1,1.0,0,1.0,0,1.0,0,1.0,0,1.0
475,'1',22.623792,5.4095227,11.213,-1.431,1.0664757,0,29.2,0.0,1.0,0.0,0.0,1.0,0,1.0,29.2,9.221,1,1.0,0,1.0,0,1.0,0,1.0,0,1.0
475,'2',29.2,11.112121,11.213,-1.431,1.0664757,0,29.2,0.0,1.0,0.0,0.0,1.0,1,1.0,29.2,4.224,1,1.0,0,1.0,0,1.0,0,1.0,0,1.0
476,'1',29.2,5.7676553,11.213,-1.431,1.0695,0,29.2,0.0,1.0,0.0,0.0,1.0,1,1.0,29.2,13.934,1,1.0,0,1.0,0,1.0,0,1.0,0,1.0
478,'1',49.3,-5.0514031,25.094,-5.472,1.0412183,0,49.3,0.0,1.0,0.0,0.0,1.0,1,1.0,49.3,19.901,1,1.0,0,1.0,0,1.0,0,1.0,0,1.0
478,'2',49.3,-5.0514031,25.094,-5.472,1.0412183,0,49.3,0.0,1.0,0.0,0.0,1.0,1,1.0,49.3,19.103,1,1.0,0,1.0,0,1.0,0,1.0,0,1.0
481,'1',171.18516,53.378126,187.593,-49.112,1.016367,0,402.56,0.0,1.0,0.0,0.0,1.0,0,1.0,402.56,154.153,1,1.0,0,1.0,0,1.0,0,1.0,0,1.0
482,'1',96.816714,134.58404,187.593,-49.112,1.016367,0,402.56,0.0,1.0,0.0,0.0,1.0,0,1.0,402.56,86.185,1,1.0,0,1.0,0,1.0,0,1.0,0,1.0
483,'1',190.45627,116.67552,187.593,-49.112,1.04,0,402.56,0.0,1.0,0.0,0.0,1.0,1,1.0,402.56,189.085,1,1.0,0,1.0,0,1.0,0,1.0,0,1.0
484,'1',115.27527,87.624351,187.593,-49.112,1.04,0,402.56,0.0,1.0,0.0,0.0,1.0,1,1.0,402.56,113.904,1,1.0,0,1.0,0,1.0,0,1.0,0,1.0
485,'1',120.53461,149.12558,187.593,-49.112,1.016367,0,402.56,0.0,1.0,0.0,0.0,1.0,0,1.0,402.56,56.892,1,1.0,0,1.0,0,1.0,0,1.0,0,1.0
486,'1',28.833,-1.413,11.072,-1.413,1.0455,0,28.83,0.0,1.0,0.0,0.0,1.0,1,1.0,28.833,3.64,1,1.0,0,1.0,0,1.0,0,1.0,0,1.0
486,'2',28.833,-1.413,11.072,-1.413,1.0455,0,28.83,0.0,1.0,0.0,0.0,1.0,1,1.0,28.833,12.556,1,1.0,0,1.0,0,1.0,0,1.0,0,1.0
486,'3',20.214955,-1.413,11.072,-1.413,1.0455,0,28.83,0.0,1.0,0.0,0.0,1.0,0,1.0,28.833,13.66,1,1.0,0,1.0,0,1.0,0,1.0,0,1.0
...
0 / END OF GENERATOR DATA BEGIN BRANCH DATA
2,212,'1',0.0154525,0.0792528,0.0268017,239.94,239.94,239.94,0.0,0.0,0.0,0.0,1,1,0.0,1,1.0,0,1.0,0,1.0,0,1.0
3,53,'1',0.00358046,0.0258456,0.0131628,260.03,260.03,260.03,0.0,0.0,0.0,0.0,1,1,0.0,1,1.0,0,1.0,0,1.0,0,1.0
3,53,'2',0.00358046,0.0258456,0.0131628,260.03,260.03,260.03,0.0,0.0,0.0,0.0,1,1,0.0,1,1.0,0,1.0,0,1.0,0,1.0
3,213,'1',0.00319977,0.0219502,0.0125158,256.59,256.59,256.59,0.0,0.0,0.0,0.0,1,1,0.0,1,1.0,0,1.0,0,1.0,0,1.0
4,5,'1',0.00696197,0.0360534,0.0111497,218.77,218.77,218.77,0.0,0.0,0.0,0.0,1,1,0.0,1,1.0,0,1.0,0,1.0,0,1.0
4,331,'1',0.00775811,0.0380507,0.0134745,227.23,227.23,227.23,0.0,0.0,0.0,0.0,1,1,0.0,1,1.0,0,1.0,0,1.0,0,1.0
5,331,'1',0.00487853,0.02675,0.00815727,198.63,198.63,198.63,0.0,0.0,0.0,0.0,1,1,0.0,1,1.0,0,1.0,0,1.0,0,1.0
5,351,'1',0.0124676,0.0654224,0.0163807,269.59,269.59,269.59,0.0,0.0,0.0,0.0,1,1,0.0,1,1.0,0,1.0,0,1.0,0,1.0
6,331,'1',0.0051151,0.0236629,0.0391647,336.94,336.94,336.94,0.0,0.0,0.0,0.0,1,1,0.0,1,1.0,0,1.0,0,1.0,0,1.0
8,461,'1',0.00268087,0.0132507,0.00588479,232.73,232.73,232.73,0.0,0.0,0.0,0.0,1,1,0.0,1,1.0,0,1.0,0,1.0,0,1.0
10,11,'1',0.0133436,0.0919039,0.0115271,212.51,212.51,212.51,0.0,0.0,0.0,0.0,1,1,0.0,1,1.0,0,1.0,0,1.0,0,1.0
10,406,'1',0.00631471,0.0440302,0.0307124,216.36,216.36,216.36,0.0,0.0,0.0,0.0,1,1,0.0,1,1.0,0,1.0,0,1.0,0,1.0
11,58,'1',0.0286556,0.128792,0.0377904,204.21,204.21,204.21,0.0,0.0,0.0,0.0,1,1,0.0,1,1.0,0,1.0,0,1.0,0,1.0
12,10,'1',0.00363287,0.0200568,0.0589258,206.37,206.37,206.37,0.0,0.0,0.0,0.0,1,1,0.0,1,1.0,0,1.0,0,1.0,0,1.0
12,406,'1',0.00340925,0.0206369,0.0061444,233.32,233.32,233.32,0.0,0.0,0.0,0.0,1,1,0.0,1,1.0,0,1.0,0,1.0,0,1.0
13,17,'1',0.0100597,0.0575367,0.0312509,227.86,227.86,227.86,0.0,0.0,0.0,0.0,1,1,0.0,1,1.0,0,1.0,0,1.0,0,1.0
14,156,'1',0.00832308,0.0444584,0.0151703,264.27,264.27,264.27,0.0,0.0,0.0,0.0,1,1,0.0,1,1.0,0,1.0,0,1.0,0,1.0
15,55,'1',0.0113961,0.0625895,0.0161825,218.52,218.52,218.52,0.0,0.0,0.0,0.0,1,1,0.0,1,1.0,0,1.0,0,1.0,0,1.0
16,162,'1',0.012951,0.0665246,0.0176437,224.35,224.35,224.35,0.0,0.0,0.0,0.0,1,1,0.0,1,1.0,0,1.0,0,1.0,0,1.0
16,304,'1',0.00759675,0.0410247,0.0264718,236.54,236.54,236.54,0.0,0.0,0.0,0.0,1,1,0.0,1,1.0,0,1.0,0,1.0,0,1.0
18,19,'1',0.0106007,0.0397642,0.0085879,245.27,245.27,245.27,0.0,0.0,0.0,0.0,1,1,0.0,1,1.0,0,1.0,0,1.0,0,1.0
18,81,'1',0.00978753,0.0448943,0.023169,223.47,223.47,223.47,0.0,0.0,0.0,0.0,1,1,0.0,1,1.0,0,1.0,0,1.0,0,1.0
18,310,'1',0.004373,0.0260086,0.0242791,277.5,277.5,277.5,0.0,0.0,0.0,0.0,1,1,0.0,1,1.0,0,1.0,0,1.0,0,1.0
18,310,'2',0.004373,0.0260086,0.0242791,277.5,277.5,277.5,0.0,0.0,0.0,0.0,1,1,0.0,1,1.0,0,1.0,0,1.0,0,1.0
19,141,'1',0.00579211,0.0290206,0.0189553,251.0,251.0,251.0,0.0,0.0,0.0,0.0,1,1,0.0,1,1.0,0,1.0,0,1.0,0,1.0
19,436,'1',0.00397383,0.0271653,0.0337435,212.6,212.6,212.6,0.0,0.0,0.0,0.0,1,1,0.0,1,1.0,0,1.0,0,1.0,0,1.0
20,22,'1',0.000207968,0.00111847,0.0,99999.0,99999.0,99999.0,0.0,0.0,0.0,0.0,1,1,0.0,1,1.0,0,1.0,0,1.0,0,1.0
21,23,'1',0.00250938,0.0172465,0.0313608,248.08,248.08,248.08,0.0,0.0,0.0,0.0,1,1,0.0,1,1.0,0,1.0,0,1.0,0,1.0
22,295,'1',0.0015308,0.016473,0.364525,1075.02,1075.02,1075.02,0.0,0.0,0.0,0.0,1,1,0.0,1,1.0,0,1.0,0,1.0,0,1.0
22,405,'1',0.002026,0.028747,1.00897,1001.46,1001.46,1001.46,0.0,0.0,0.0,0.0,1,1,0.0,1,1.0,0,1.0,0,1.0,0,1.0
23,179,'1',0.008727,0.054891,0.034891,236.33,236.33,236.33,0.0,0.0,0.0,0.0,1,1,0.0,1,1.0,0,1.0,0,1.0,0,1.0
24,4,'1',0.00353554,0.0227525,0.0272812,241.53,241.53,241.53,0.0,0.0,0.0,0.0,1,1,0.0,1,1.0,0,1.0,0,1.0,0,1.0
24,56,'1',0.00957472,0.0499942,0.0131242,244.03,244.03,244.03,0.0,0.0,0.0,0.0,1,1,0.0,1,1.0,0,1.0,0,1.0,0,1.0
25,27,'1',0.000257042,0.00119754,0.0,99999.0,99999.0,99999.0,0.0,0.0,0.0,0.0,1,1,0.0,1,1.0,0,1.0,0,1.0,0,1.0
25,314,'1',0.00158469,0.0214403,0.275456,1151.39,1151.39,1151.39,0.0,0.0,0.0,0.0,1,1,0.0,1,1.0,0,1.0,0,1.0,0,1.0
28,29,'1',0.0121765,0.0608641,0.0130017,207.91,207.91,207.91,0.0,0.0,0.0,0.0,1,1,0.0,1,1.0,0,1.0,0,1.0,0,1.0
28,30,'1',0.00432531,0.0200998,0.00802657,230.9,230.9,230.9,0.0,0.0,0.0,0.0,1,1,0.0,1,1.0,0,1.0,0,1.0,0,1.0
29,356,'1',0.00799791,0.0387782,0.0352203,188.9,188.9,188.9,0.0,0.0,0.0,0.0,1,1,0.0,1,1.0,0,1.0,0,1.0,0,1.0
30,26,'1',0.00666488,0.0320152,0.0220243,304.68,304.68,304.68,0.0,0.0,0.0,0.0,1,1,0.0,1,1.0,0,1.0,0,1.0,0,1.0
31,228,'1',0.008946,0.057044,0.025829,280.0,280.0,280.0,0.0,0.0,0.0,0.0,1,1,0.0,1,1.0,0,1.0,0,1.0,0,1.0
31,296,'1',0.00518286,0.0326049,0.0584572,358.79,358.79,358.79,0.0,0.0,0.0,0.0,1,1,0.0,1,1.0,0,1.0,0,1.0,0,1.0
31,415,'1',0.0113363,0.0554702,0.0432148,231.46,231.46,231.46,0.0,0.0,0.0,0.0,1,1,0.0,1,1.0,0,1.0,0,1.0,0,1.0
33,32,'1',0.00681448,0.0338755,0.0131701,196.59,196.59,196.59,0.0,0.0,0.0,0.0,1,1,0.0,1,1.0,0,1.0,0,1.0,0,1.0
34,33,'1',0.00341126,0.0247052,0.0295283,270.99,270.99,270.99,0.0,0.0,0.0,0.0,1,1,0.0,1,1.0,0,1.0,0,1.0,0,1.0
34,33,'2',0.00341126,0.0247052,0.0295283,270.99,270.99,270.99,0.0,0.0,0.0,0.0,1,1,0.0,1,1.0,0,1.0,0,1.0,0,1.0
35,40,'1',0.00293506,0.0185201,0.00990083,228.32,228.32,228.32,0.0,0.0,0.0,0.0,1,1,0.0,1,1.0,0,1.0,0,1.0,0,1.0
35,42,'1',0.00449505,0.0326042,0.0129473,276.08,276.08,276.08,0.0,0.0,0.0,0.0,1,1,0.0,1,1.0,0,1.0,0,1.0,0,1.0
36,2,'1',0.00289863,0.0167658,0.0148842,188.66,188.66,188.66,0.0,0.0,0.0,0.0,1,1,0.0,1,1.0,0,1.0,0,1.0,0,1.0
36,33,'1',0.00284038,0.0206656,0.011617,213.45,213.45,213.45,0.0,0.0,0.0,0.0,0,1,0.0,1,1.0,0,1.0,0,1.0,0,1.0
37,35,'1',0.00780774,0.0366615,0.0156035,218.76,218.76,218.76,0.0,0.0,0.0,0.0,1,1,0.0,1,1.0,0,1.0,0,1.0,0,1.0
37,44,'1',0.00830767,0.0554788,0.0311844,200.99,200.99,200.99,0.0,0.0,0.0,0.0,1,1,0.0,1,1.0,0,1.0,0,1.0,0,1.0
38,39,'1',0.00316109,0.0157664,0.019275,252.83,252.83,252.83,0.0,0.0,0.0,0.0,1,1,0.0,1,1.0,0,1.0,0,1.0,0,1.0
38,49,'1',0.0106902,0.0689767,0.0297214,204.2,204.2,204.2,0.0,0.0,0.0,0.0,1,1,0.0,1,1.0,0,1.0,0,1.0,0,1.0
39,35,'1',0.00384653,0.022595,0.0115165,259.81,259.81,259.81,0.0,0.0,0.0,0.0,1,1,0.0,1,1.0,0,1.0,0,1.0,0,1.0
39,35,'2',0.00384653,0.022595,0.0115165,259.81,259.81,259.81,0.0,0.0,0.0,0.0,1,1,0.0,1,1.0,0,1.0,0,1.0,0,1.0
39,361,'1',0.00410223,0.0323982,0.0223687,296.76,296.76,296.76,0.0,0.0,0.0,0.0,1,1,0.0,1,1.0,0,1.0,0,1.0,0,1.0
39,361,'2',0.00410223,0.0323982,0.0223687,296.76,296.76,296.76,0.0,0.0,0.0,0.0,1,1,0.0,1,1.0,0,1.0,0,1.0,0,1.0
39,361,'3',0.00410223,0.0323982,0.0223687,296.76,296.76,296.76,0.0,0.0,0.0,0.0,0,1,0.0,1,1.0,0,1.0,0,1.0,0,1.0
41,43,'1',0.000233031,0.00104503,0.0,99999.0,99999.0,99999.0,0.0,0.0,0.0,0.0,1,1,0.0,1,1.0,0,1.0,0,1.0,0,1.0
42,40,'1',0.00435644,0.0248836,0.0126137,308.21,308.21,308.21,0.0,0.0,0.0,0.0,1,1,0.0,1,1.0,0,1.0,0,1.0,0,1.0
43,54,'1',0.00111725,0.0133249,0.292213,1210.87,1210.87,1210.87,0.0,0.0,0.0,0.0,1,1,0.0,1,1.0,0,1.0,0,1.0,0,1.0
43,498,'1',0.00161178,0.0198636,0.286039,1210.03,1210.03,1210.03,0.0,0.0,0.0,0.0,1,1,0.0,1,1.0,0,1.0,0,1.0,0,1.0
44,42,'1',0.00483059,0.022229,0.00975406,240.21,240.21,240.21,0.0,0.0,0.0,0.0,1,1,0.0,1,1.0,0,1.0,0,1.0,0,1.0
45,36,'1',0.00469767,0.0323288,0.00954514,196.67,196.67,196.67,0.0,0.0,0.0,0.0,1,1,0.0,1,1.0,0,1.0,0,1.0,0,1.0
45,37,'1',0.00411194,0.0226471,0.0067485,223.09,223.09,223.09,0.0,0.0,0.0,0.0,1,1,0.0,1,1.0,0,1.0,0,1.0,0,1.0
46,45,'1',0.0023403,0.0128024,0.0123531,401.85,401.85,401.85,0.0,0.0,0.0,0.0,1,1,0.0,1,1.0,0,1.0,0,1.0,0,1.0
46,50,'1',0.00351582,0.0151322,0.0225659,213.18,213.18,213.18,0.0,0.0,0.0,0.0,1,1,0.0,1,1.0,0,1.0,0,1.0,0,1.0
46,51,'1',0.00390017,0.0201794,0.0263679,290.75,290.75,290.75,0.0,0.0,0.0,0.0,1,1,0.0,1,1.0,0,1.0,0,1.0,0,1.0
46,51,'2',0.00390017,0.0201794,0.0263679,290.75,290.75,290.75,0.0,0.0,0.0,0.0,1,1,0.0,1,1.0,0,1.0,0,1.0,0,1.0
46,214,'1',0.00565635,0.0285577,0.0458282,324.34,324.34,324.34,0.0,0.0,0.0,0.0,1,1,0.0,1,1.0,0,1.0,0,1.0,0,1.0
47,40,'1',0.00542345,0.0298445,0.00973297,209.65,209.65,209.65,0.0,0.0,0.0,0.0,1,1,0.0,1,1.0,0,1.0,0,1.0,0,1.0
48,50,'1',0.00493315,0.0197057,0.0266381,231.0,231.0,231.0,0.0,0.0,0.0,0.0,1,1,0.0,1,1.0,0,1.0,0,1.0,0,1.0
48,480,'1',0.0141266,0.063385,0.013796,270.01,270.01,270.01,0.0,0.0,0.0,0.0,1,1,0.0,1,1.0,0,1.0,0,1.0,0,1.0
49,47,'1',0.00274605,0.0168842,0.011861,210.29,210.29,210.29,0.0,0.0,0.0,0.0,1,1,0.0,1,1.0,0,1.0,0,1.0,0,1.0
50,49,'1',0.00420333,0.0189576,0.00848235,263.28,263.28,263.28,0.0,0.0,0.0,0.0,1,1,0.0,1,1.0,0,1.0,0,1.0,0,1.0
50,51,'1',0.00306979,0.0198041,0.0129611,299.51,299.51,299.51,0.0,0.0,0.0,0.0,1,1,0.0,1,1.0,0,1.0,0,1.0,0,1.0
51,48,'1',0.00285314,0.0207706,0.0111933,206.03,206.03,206.03,0.0,0.0,0.0,0.0,1,1,0.0,1,1.0,0,1.0,0,1.0,0,1.0
51,70,'1',0.00927047,0.0420854,0.0202396,302.02,302.02,302.02,0.0,0.0,0.0,0.0,1,1,0.0,1,1.0,0,1.0,0,1.0,0,1.0
51,357,'1',0.00606199,0.0375019,0.0462067,281.97,281.97,281.97,0.0,0.0,0.0,0.0,1,1,0.0,1,1.0,0,1.0,0,1.0,0,1.0
51,357,'2',0.00606199,0.0375019,0.0462067,281.97,281.97,281.97,0.0,0.0,0.0,0.0,1,1,0.0,1,1.0,0,1.0,0,1.0,0,1.0
51,357,'3',0.00606199,0.0375019,0.0462067,281.97,281.97,281.97,0.0,0.0,0.0,0.0,1,1,0.0,1,1.0,0,1.0,0,1.0,0,1.0
52,54,'1',0.000209023,0.00101092,0.0,99999.0,99999.0,99999.0,0.0,0.0,0.0,0.0,1,1,0.0,1,1.0,0,1.0,0,1.0,0,1.0
53,32,'1',0.00540244,0.030335,0.00829098,226.77,226.77,226.77,0.0,0.0,0.0,0.0,1,1,0.0,1,1.0,0,1.0,0,1.0,0,1.0
53,36,'1',0.00511899,0.0318872,0.0170703,230.21,230.21,230.21,0.0,0.0,0.0,0.0,1,1,0.0,1,1.0,0,1.0,0,1.0,0,1.0
53,45,'1',0.00448796,0.0251172,0.0179586,273.78,273.78,273.78,0.0,0.0,0.0,0.0,1,1,0.0,1,1.0,0,1.0,0,1.0,0,1.0
53,45,'2',0.00448796,0.0251172,0.0179586,273.78,273.78,273.78,0.0,0.0,0.0,0.0,1,1,0.0,1,1.0,0,1.0,0,1.0,0,1.0
55,72,'1',0.00255071,0.0145816,0.0529998,202.42,202.42,202.42,0.0,0.0,0.0,0.0,1,1,0.0,1,1.0,0,1.0,0,1.0,0,1.0
57,66,'1',0.012542,0.0731735,0.0174808,188.33,188.33,188.33,0.0,0.0,0.0,0.0,1,1,0.0,1,1.0,0,1.0,0,1.0,0,1.0
57,161,'1',0.0318774,0.176516,0.0907922,198.2,198.2,198.2,0.0,0.0,0.0,0.0,1,1,0.0,1,1.0,0,1.0,0,1.0,0,1.0
57,255,'1',0.00718102,0.0390624,0.0537424,300.0,300.0,300.0,0.0,0.0,0.0,0.0,1,1,0.0,1,1.0,0,1.0,0,1.0,0,1.0
...